369
Generated rotated structure
Cu 54.074270 48.937810 46.094698
Cu 56.123674 47.822270 46.866599
Cu 57.517324 49.886197 46.988772
Cu 59.837773 49.598601 47.815508
Cu 61.068214 51.707434 47.530716
Cu 52.843100 52.744527 44.734948
Cu 54.656011 51.311915 45.660400
Cu 56.139884 54.341512 45.397826
Cu 59.161072 53.086871 46.709895
Cu 59.664219 55.487009 46.279370
Cu 53.872458 54.971182 44.588367
Cu 57.547805 56.394388 45.441594
Cu 53.861780 45.972137 50.021934
Cu 55.964313 45.763909 51.365444
Cu 56.000926 46.935568 49.177211
Cu 58.102769 46.738987 50.519635
Cu 59.819201 47.328095 52.233466
Cu 59.829916 48.484361 50.034283
Cu 61.584584 49.036700 51.727058
Cu 49.860068 48.479161 48.687962
Cu 51.725812 46.843178 49.055509
Cu 51.978332 48.706970 47.408623
Cu 53.900687 47.156439 47.828465
Cu 53.108632 50.070394 49.173768
Cu 55.234092 49.130489 50.092629
Cu 55.224332 50.292531 47.869767
Cu 58.148185 47.851030 48.299599
Cu 56.337512 51.368854 49.847175
Cu 58.466874 50.436973 50.800220
Cu 58.482326 51.575440 48.575247
Cu 61.522399 50.259042 49.528569
Cu 59.552454 52.675113 50.573558
Cu 62.682695 51.276794 51.484632
Cu 61.869622 52.738688 49.638930
Cu 62.935960 53.766061 51.633114
Cu 48.620833 52.323996 47.314688
Cu 50.113385 50.338042 47.037266
Cu 50.738894 52.549756 46.037605
Cu 52.247757 50.580080 45.782685
Cu 52.064862 53.289450 48.022846
Cu 54.198761 52.319831 48.917821
Cu 54.181790 53.521406 46.710286
Cu 57.026179 52.069832 45.896373
Cu 55.299065 54.565934 48.700139
Cu 57.441808 53.625971 49.617471
Cu 57.518881 54.838264 47.415004
Cu 61.179672 54.176181 47.726846
Cu 58.511331 55.898930 49.442599
Cu 62.196172 55.218125 49.741351
Cu 60.639759 56.546788 48.301390
Cu 61.701148 57.604114 50.282709
Cu 49.269466 54.545846 46.334546
Cu 51.438701 54.777071 45.126256
Cu 50.248000 56.861172 46.127571
Cu 53.162661 55.528087 47.797180
Cu 52.701290 56.850740 45.713399
Cu 55.142674 56.543614 46.025832
Cu 54.145754 58.795161 46.378977
Cu 56.382945 56.811752 48.491805
Cu 56.641556 58.474268 46.444006
Cu 59.017647 57.825891 46.886994
Cu 58.088394 59.953276 47.820420
Cu 60.145077 58.939373 48.834889
Cu 51.682397 58.833251 46.798170
Cu 55.606951 60.379856 47.640195
Cu 53.865600 44.739684 54.991112
Cu 55.912616 44.613605 53.569746
Cu 57.432372 45.803629 55.164608
Cu 59.792361 46.163670 54.424916
Cu 60.608369 47.545747 56.314574
Cu 49.687684 45.595281 52.648051
Cu 51.824962 44.694612 53.550807
Cu 51.704830 45.517045 51.187515
Cu 53.866446 44.660235 52.138894
Cu 53.092415 47.735713 53.606087
Cu 55.218131 46.795387 54.539820
Cu 55.215291 47.958370 52.305646
Cu 58.037452 45.634068 52.747056
Cu 56.317655 49.027990 54.283812
Cu 58.435466 48.099782 55.218404
Cu 58.470484 49.285841 53.015615
Cu 61.487478 47.953712 53.989929
Cu 59.528619 50.341972 55.023601
Cu 62.488690 49.138749 55.942464
Cu 62.803478 50.068986 53.658834
Cu 63.414981 51.441689 55.664687
Cu 47.964945 47.344425 52.255712
Cu 47.741111 48.261447 49.962455
Cu 49.615089 46.662225 50.394409
Cu 48.855857 49.617457 51.734948
Cu 50.894519 48.594459 52.774913
Cu 51.051125 49.684098 50.529873
Cu 52.636181 47.837329 51.153801
Cu 52.067577 50.916813 52.443978
Cu 54.190778 49.976299 53.364853
Cu 54.200357 51.147906 51.146284
Cu 56.331251 50.192739 52.070032
Cu 55.278273 52.215825 53.140159
Cu 57.399772 51.277569 54.068835
Cu 57.414151 52.448570 51.848257
Cu 60.625544 51.025649 52.881670
Cu 58.483250 53.517765 53.852609
Cu 60.611808 52.582135 54.823405
Cu 60.622312 53.714944 52.588169
Cu 63.913277 52.302033 53.391570
Cu 61.677943 54.820200 54.580951
Cu 63.550776 53.926045 55.973101
Cu 63.976038 54.785790 53.656743
Cu 46.828502 50.515129 50.535335
Cu 46.508567 52.126555 48.629744
Cu 48.013292 50.147153 48.364922
Cu 47.818090 52.806533 50.620278
Cu 49.944458 51.850081 51.512257
Cu 49.938907 53.052203 49.311837
Cu 52.066054 52.084570 50.215351
Cu 51.029753 54.096781 51.301498
Cu 53.153821 53.156017 52.217347
Cu 53.163132 54.336709 50.002973
Cu 55.292689 53.387695 50.914606
Cu 54.239473 55.397068 52.000264
Cu 56.364302 54.457534 52.920827
Cu 56.375378 55.634356 50.705953
Cu 58.516481 54.692841 51.629192
Cu 57.446040 56.700654 52.710773
Cu 59.575626 55.759524 53.627664
Cu 59.574484 56.962381 51.433159
Cu 63.185763 56.240802 51.783480
Cu 60.658201 58.007843 53.433938
Cu 62.846012 56.986244 54.145059
Cu 62.769009 58.640767 52.268467
Cu 45.648435 53.943321 50.135882
Cu 47.041059 54.242251 47.419260
Cu 46.267353 56.053335 48.936498
Cu 48.892744 55.046059 50.398517
Cu 48.043490 56.520206 47.238099
Cu 50.143952 55.733759 48.349458
Cu 49.846347 57.341633 50.229636
Cu 52.112872 56.337403 51.087099
Cu 51.931084 57.427491 48.852597
Cu 54.250115 56.587551 49.779119
Cu 53.195522 58.579264 50.854972
Cu 55.320625 57.638507 51.792001
Cu 55.514108 58.868732 49.632330
Cu 57.983007 58.889808 50.078283
Cu 56.425385 60.004110 51.668908
Cu 58.528646 58.958449 52.519211
Cu 59.187445 61.059597 49.764303
Cu 61.157076 59.971932 50.882980
Cu 60.008185 61.914981 51.949745
Cu 61.391844 60.396041 53.344911
Cu 47.211536 58.355174 48.685950
Cu 49.233536 58.834827 47.295113
Cu 48.736808 60.212560 49.322126
Cu 51.052125 59.502489 49.956347
Cu 50.665566 60.819812 47.881851
Cu 53.133438 60.738791 47.569862
Cu 52.175564 61.716432 49.676455
Cu 54.290602 60.816120 50.667362
Cu 54.612019 62.366669 48.754214
Cu 57.084699 62.016254 48.796158
Cu 55.344149 63.062848 51.032753
Cu 57.818248 62.707759 51.067325
Cu 53.104651 45.385952 57.416047
Cu 55.486396 45.532880 56.710229
Cu 56.273236 46.732368 58.772345
Cu 58.443762 46.935321 57.425176
Cu 59.711992 48.236240 59.126674
Cu 48.440615 46.533819 56.499055
Cu 50.630552 45.741041 57.381475
Cu 49.900818 45.103004 55.080976
Cu 52.019544 46.365672 55.397988
Cu 52.023415 48.444690 56.779892
Cu 54.158198 47.632680 57.781438
Cu 54.183725 48.810900 55.582627
Cu 56.309636 47.867425 56.519127
Cu 55.253278 49.869536 57.593828
Cu 57.396675 48.946311 58.492453
Cu 57.384359 50.107247 56.282014
Cu 60.551780 49.799539 57.372687
Cu 58.602453 51.107167 58.219164
Cu 61.237264 50.093626 59.762850
Cu 62.847388 50.587211 57.933376
Cu 62.181447 52.395465 59.512302
Cu 47.056956 48.052760 55.103889
Cu 46.725503 49.373412 53.017210
Cu 49.340000 47.412237 54.336073
Cu 47.790599 50.440957 55.014862
Cu 49.920154 49.490351 55.929589
Cu 49.930170 50.684896 53.735708
Cu 52.055823 49.748521 54.657408
Cu 51.002760 51.748146 55.738027
Cu 53.128175 50.810293 56.656799
Cu 53.141736 51.986449 54.441863
Cu 55.263986 51.047050 55.362713
Cu 54.209327 53.051732 56.448536
Cu 56.335929 52.111397 57.361701
Cu 56.344996 53.287136 55.144490
Cu 58.465191 52.348846 56.065754
Cu 57.419047 54.352019 57.147302
Cu 59.556056 53.402741 58.050283
Cu 59.545001 54.591410 55.849578
Cu 61.721170 52.630774 57.066447
Cu 60.630710 55.642267 57.828522
Cu 62.800365 54.505479 58.312918
Cu 62.881391 56.258810 56.543242
Cu 45.602788 51.462556 54.303741
Cu 45.567410 52.189990 51.905558
Cu 47.808834 51.615095 52.813530
Cu 46.770858 53.628600 53.867849
Cu 48.873174 52.689276 54.821136
Cu 48.903799 53.857391 52.599222
Cu 51.019756 52.922141 53.521622
Cu 49.965550 54.931035 54.596191
Cu 52.084498 53.991266 55.527973
Cu 52.103804 55.161664 53.304310
Cu 54.224400 54.224400 54.224400
Cu 53.170527 56.232975 55.308641
Cu 55.294979 55.292783 56.231453
Cu 55.307064 56.462351 54.006937
Cu 57.429044 55.526659 54.927178
Cu 56.381222 57.531987 56.004822
Cu 58.504342 56.598719 56.936543
Cu 58.518630 57.763904 54.713092
Cu 60.639966 56.833705 55.635270
Cu 59.592943 58.831343 56.713851
Cu 61.620298 57.933671 57.913465
Cu 61.723297 59.075388 55.431590
Cu 44.898024 54.522755 52.475699
Cu 46.727630 55.818026 51.382353
Cu 45.033819 57.007111 52.784113
Cu 47.836992 55.866665 53.625395
Cu 45.601412 57.861589 50.515424
Cu 49.983609 56.099953 52.383046
Cu 48.920181 58.106828 53.425199
Cu 51.049028 57.171231 54.379965
Cu 51.064441 58.341554 52.166786
Cu 53.184814 57.401750 53.086087
Cu 52.131144 59.420810 54.164988
Cu 54.258023 58.472501 55.083946
Cu 54.265075 59.637900 52.866173
Cu 56.392977 58.700279 53.791391
Cu 55.356385 60.713087 54.842713
Cu 57.554281 59.854341 55.673887
Cu 58.547982 63.345796 53.367824
Cu 59.108800 61.036563 54.112727
Cu 58.761116 62.853519 55.800749
Cu 60.483855 61.104375 56.193088
Cu 45.960110 59.310051 52.506336
Cu 47.897020 58.649261 51.076113
Cu 47.840431 60.903053 52.134226
Cu 50.013334 60.349018 53.230396
Cu 50.005039 61.513479 51.023624
Cu 52.139163 60.581375 51.929673
Cu 51.016428 62.645171 53.284192
Cu 53.230669 61.653413 53.908980
Cu 52.962404 62.915920 51.738571
Cu 56.429256 62.083127 53.050812
Cu 54.583200 63.709116 53.457688
Cu 56.623838 63.754188 54.897993
Cu 53.836781 46.082131 59.694586
Cu 57.783234 47.628988 60.566949
Cu 49.261355 47.389203 58.684497
Cu 51.364101 46.432546 59.652642
Cu 50.360406 48.495524 60.628380
Cu 52.841849 48.068944 60.808605
Cu 52.934692 49.580068 58.816470
Cu 55.315362 47.710009 60.878938
Cu 54.303046 49.653639 62.069823
Cu 56.766403 49.615549 61.650630
Cu 56.517716 51.021309 59.596203
Cu 59.215264 49.613973 61.153687
Cu 58.200800 51.587628 62.321229
Cu 60.405310 51.928594 61.210701
Cu 45.679791 49.808032 56.180333
Cu 47.291724 48.476868 57.565820
Cu 46.747652 50.844686 58.166091
Cu 48.303723 49.509427 59.613911
Cu 48.874316 51.486419 57.015641
Cu 50.465793 49.558992 58.370517
Cu 49.937469 52.549870 59.006201
Cu 52.065855 51.637048 59.956995
Cu 52.073422 52.814444 57.742847
Cu 54.198685 51.861249 58.669681
Cu 53.149735 53.882866 59.748661
Cu 55.286139 52.920713 60.651620
Cu 55.285668 54.112091 58.445827
Cu 58.304848 52.715041 60.099342
Cu 56.383938 55.159350 60.425954
Cu 59.179334 53.902954 62.114253
Cu 58.509893 55.396597 59.136963
Cu 61.407741 54.206549 61.029540
Cu 59.827967 56.124804 61.134112
Cu 61.940233 56.322245 59.819056
Cu 44.472762 53.663010 54.792057
Cu 45.263037 52.207998 56.665320
Cu 45.512840 54.682738 56.815686
Cu 46.252628 53.230675 58.707449
Cu 47.826488 54.733856 55.860631
Cu 49.932319 53.755959 56.819608
Cu 48.896346 55.773687 57.875242
Cu 51.006992 54.822829 58.831329
Cu 51.034649 56.000230 56.600543
Cu 53.156111 55.061105 57.534194
Cu 52.111288 57.079946 58.601625
Cu 54.250039 56.128969 59.530979
Cu 54.248443 57.300894 57.302516
Cu 56.382746 56.364230 58.233449
Cu 55.340168 58.378406 59.275032
Cu 58.335415 58.110758 61.411534
Cu 57.397675 58.764702 57.918927
Cu 60.435508 58.301647 60.083878
Cu 58.588732 59.969639 59.760838
Cu 60.707689 60.187353 58.486345
Cu 44.535523 56.146767 55.057230
Cu 45.766105 57.172006 56.964168
Cu 45.645322 58.379814 54.789966
Cu 47.823256 57.423151 55.567131
Cu 46.864216 59.412100 56.721742
Cu 49.981926 58.011827 57.648580
Cu 49.978316 59.162959 55.433185
Cu 52.117549 58.256061 56.378768
Cu 50.346031 61.709813 57.929165
Cu 53.214708 59.318311 58.356171
Cu 53.233509 60.490430 56.143154
Cu 55.812619 60.611471 57.294999
Cu 54.587020 62.476663 58.426866
Cu 56.722988 61.605622 59.393291
Cu 56.743970 62.931755 57.261285
Cu 58.833711 61.786575 58.054391
Cu 46.961322 60.495088 54.458872
Cu 48.629599 61.120705 56.215334
Cu 48.656439 62.285130 54.023884
Cu 50.411348 62.814732 55.701744
Cu 52.484487 62.684891 57.083356
Cu 52.536184 63.835195 54.879054
Cu 54.582354 63.788565 56.309906
Cu 51.807244 49.974532 62.004794
Cu 55.747510 51.598060 62.735401
Cu 47.809041 51.902012 60.147410
Cu 49.431153 50.622909 61.561806
Cu 48.784581 52.961791 62.169430
Cu 50.900995 52.054412 63.007206
Cu 50.929919 53.610536 61.033796
Cu 53.306126 51.905186 62.422968
Cu 52.308916 54.107288 63.050974
Cu 54.576342 53.477618 63.860433
Cu 54.267010 54.927394 61.738514
Cu 57.010099 53.671729 63.322544
Cu 55.605700 55.704273 63.713852
Cu 57.709906 55.899044 62.411195
Cu 46.579178 55.710112 58.809870
Cu 47.269128 54.272619 60.721954
Cu 47.380586 56.741366 60.918084
Cu 49.287728 55.361929 61.738905
Cu 49.966474 56.873360 59.873553
Cu 51.422621 56.378968 62.552427
Cu 50.931476 58.562603 61.460028
Cu 53.792789 57.136885 62.788400
Cu 53.224468 58.156269 60.579033
Cu 56.201043 57.868720 62.666115
Cu 54.374530 59.510990 62.354102
Cu 56.470468 59.741830 61.040177
Cu 46.926401 58.189758 58.920231
Cu 48.611027 58.850199 60.633292
Cu 48.618884 59.964439 58.414517
Cu 50.300615 60.597770 60.149201
Cu 52.325126 60.626530 61.582201
Cu 52.447874 61.513232 59.271589
Cu 54.548113 61.292361 60.620335
