135
Generated rotated structure
Cu 50.685999 52.436114 48.931348
Cu 52.435156 50.686982 48.931965
Cu 54.224946 52.444775 48.895416
Cu 56.014791 50.686063 48.931802
Cu 57.763794 52.435111 48.931074
Cu 50.684831 56.015550 48.930624
Cu 52.443626 54.226151 48.894427
Cu 54.223972 56.006452 48.893394
Cu 56.005270 54.225179 48.894355
Cu 57.763176 56.014529 48.930746
Cu 52.434559 57.765160 48.929790
Cu 56.013363 57.764297 48.930024
Cu 50.686692 48.932117 52.435506
Cu 52.435485 48.932123 50.686693
Cu 54.225650 48.895298 52.444789
Cu 56.015144 48.931563 50.686405
Cu 57.764523 48.930149 52.435867
Cu 48.931984 50.686984 52.435173
Cu 48.931370 52.436111 50.686004
Cu 50.410051 50.410765 50.410051
Cu 50.683800 52.459845 52.459191
Cu 52.459685 50.684015 52.459683
Cu 52.459196 52.459847 50.683766
Cu 54.225084 50.671480 50.671537
Cu 54.225334 52.453464 52.453541
Cu 55.990805 50.682864 52.459419
Cu 55.990249 52.459287 50.683187
Cu 58.044476 50.405028 50.406022
Cu 57.766177 52.458203 52.458895
Cu 59.518712 50.684553 52.435436
Cu 59.518019 52.434309 50.685634
Cu 48.894487 54.226137 52.443620
Cu 48.930660 56.015543 50.684821
Cu 50.670511 54.225728 50.670479
Cu 50.682115 55.991197 52.458387
Cu 52.452908 54.226222 52.452875
Cu 52.458396 55.991217 50.682069
Cu 54.224430 54.225514 50.663038
Cu 54.223536 55.996573 52.452302
Cu 55.995929 54.224422 52.452837
Cu 55.989903 55.990631 50.682567
Cu 57.778384 54.224416 50.670384
Cu 57.765590 55.989526 52.458537
Cu 59.554385 54.223659 52.443525
Cu 59.517709 56.013716 50.684991
Cu 48.929844 57.765130 52.434547
Cu 50.400718 58.049116 50.400664
Cu 50.684007 59.519126 52.434045
Cu 52.457803 57.767080 52.457769
Cu 52.434077 59.519149 50.683962
Cu 54.223773 57.779504 50.669352
Cu 54.223171 59.555525 52.442351
Cu 55.989380 57.765956 52.457957
Cu 56.012936 59.518683 50.684226
Cu 58.042828 58.043868 50.404229
Cu 57.762401 59.517248 52.433631
Cu 59.516992 57.762751 52.434009
Cu 50.686399 48.931553 56.015169
Cu 52.444784 48.895278 54.225680
Cu 54.225629 48.893275 56.006449
Cu 56.006405 48.893295 54.225655
Cu 57.764793 48.929674 56.014755
Cu 48.931809 50.686049 56.014791
Cu 48.895455 52.444768 54.224951
Cu 50.671555 50.671465 54.225099
Cu 50.683209 52.459273 55.990263
Cu 52.459420 50.682843 55.990843
Cu 52.453555 52.453442 54.225354
Cu 54.225492 50.662918 54.225513
Cu 54.225265 52.452227 55.996498
Cu 55.990997 50.681721 55.991031
Cu 55.996461 52.452228 54.225284
Cu 57.779387 50.669318 54.225039
Cu 57.766684 52.457604 55.990413
Cu 59.518956 50.683669 56.014253
Cu 59.555324 52.442383 54.224833
Cu 48.894415 54.225141 56.005275
Cu 48.893476 56.006417 54.223967
Cu 50.663109 54.225491 54.224430
Cu 50.682624 55.990597 55.989905
Cu 52.452871 54.224379 55.995963
Cu 52.452339 55.996572 54.223517
Cu 54.224400 54.224400 54.224400
Cu 54.223464 55.995336 55.995259
Cu 55.995892 54.222576 55.995925
Cu 55.995245 55.995358 54.223444
Cu 57.785691 54.223309 54.224370
Cu 57.765001 55.988955 55.989609
Cu 59.554313 54.222663 56.005180
Cu 59.553345 56.004032 54.223849
Cu 48.930088 57.764248 56.013364
Cu 50.669413 57.779482 54.223761
Cu 50.684277 59.518651 56.012933
Cu 52.457995 57.765935 55.989381
Cu 52.442395 59.555505 54.223145
Cu 54.223308 57.785882 54.223287
Cu 54.223150 59.553502 56.004011
Cu 55.989116 57.764786 55.989117
Cu 56.004016 59.553522 54.223120
Cu 57.777245 57.777335 54.223701
Cu 57.762108 59.516682 56.013294
Cu 59.516816 57.761816 56.013627
Cu 52.435864 48.930117 57.764574
Cu 56.014723 48.929651 57.764838
Cu 48.931091 52.435084 57.763809
Cu 50.405972 50.404932 58.044571
Cu 50.685624 52.434271 59.518054
Cu 52.435437 50.684503 59.518776
Cu 52.458897 52.458169 57.766234
Cu 54.225026 50.669296 57.779448
Cu 54.224828 52.442348 59.555406
Cu 56.014241 50.683640 59.519010
Cu 55.990403 52.457583 57.766730
Cu 58.048082 50.399684 58.048136
Cu 57.763970 52.433250 59.518176
Cu 59.518141 52.433257 57.763979
Cu 48.930781 56.014491 57.763166
Cu 50.670416 54.224384 57.778416
Cu 50.685005 56.013689 59.517726
Cu 52.443530 54.223621 59.554445
Cu 52.458551 55.989513 57.765613
Cu 54.224370 54.223286 57.785762
Cu 54.223854 56.004025 59.553384
Cu 56.005174 54.222649 59.554373
Cu 55.989604 55.988953 57.765035
Cu 57.778289 54.223072 57.778321
Cu 57.762801 56.012686 59.517452
Cu 59.517430 56.012689 57.762796
Cu 50.404324 58.043772 58.042778
Cu 52.434009 57.762737 59.516998
Cu 52.433656 59.517237 57.762395
Cu 54.223716 57.777320 57.777263
Cu 56.013644 57.761818 59.516835
Cu 56.013315 59.516677 57.762107
Cu 58.038749 58.038035 58.038749
