249
Generated rotated structure
Cu 53.117277 49.248190 47.632311
Cu 56.301479 50.830964 47.827210
Cu 59.485763 52.413721 48.020891
Cu 50.753004 49.992808 47.940528
Cu 52.240604 51.189545 46.338952
Cu 51.535817 52.324395 48.440459
Cu 53.929986 51.570364 48.128341
Cu 53.034865 53.514962 46.813622
Cu 55.411381 52.781434 46.525800
Cu 54.721339 53.910367 48.638249
Cu 57.104917 53.148501 48.322063
Cu 56.223795 55.100057 47.008198
Cu 58.594085 54.347617 46.726616
Cu 57.909238 55.492378 48.829340
Cu 60.280039 54.728332 48.521830
Cu 49.170426 53.076852 48.756851
Cu 50.671919 54.274103 47.143659
Cu 49.957680 55.399487 49.253812
Cu 52.348835 54.657575 48.947541
Cu 51.449770 56.603611 47.630561
Cu 53.836402 55.853432 47.312603
Cu 53.145877 56.980244 49.450223
Cu 55.518382 56.233035 49.140934
Cu 54.638700 58.188706 47.825138
Cu 57.003605 57.421342 47.529994
Cu 56.331101 58.567469 49.642694
Cu 58.697156 57.812224 49.338135
Cu 47.587479 56.161016 49.572002
Cu 49.082536 57.343221 47.966582
Cu 48.381754 58.475627 50.072942
Cu 50.762000 57.743365 49.761083
Cu 52.264142 58.914011 48.147850
Cu 51.566103 60.058113 50.267766
Cu 53.936932 59.321502 49.954805
Cu 55.436017 60.501292 48.354247
Cu 54.750241 61.641157 50.461524
Cu 57.114513 60.896539 50.153305
Cu 51.634405 48.058819 49.252343
Cu 53.999245 47.329621 48.956027
Cu 53.311760 48.427794 51.082751
Cu 55.691009 47.684602 50.765865
Cu 54.813224 49.632072 49.442616
Cu 57.181779 48.896386 49.159703
Cu 56.497642 50.012368 51.280888
Cu 58.881145 49.270296 50.960514
Cu 57.988189 51.210225 49.636340
Cu 60.353198 50.487928 49.343719
Cu 59.684679 51.595528 51.471602
Cu 61.161231 52.794239 49.833632
Cu 49.281155 48.815558 49.571099
Cu 48.564677 49.929004 51.694889
Cu 50.942031 49.174127 51.391683
Cu 50.049631 51.132343 50.063623
Cu 52.433143 50.382858 49.764711
Cu 51.736398 51.509822 51.894303
Cu 54.118263 50.759663 51.583791
Cu 53.230351 52.707948 50.262791
Cu 55.609582 51.961267 49.958891
Cu 54.917560 53.091887 52.090028
Cu 57.299356 52.340862 51.777889
Cu 56.411599 54.289224 50.456899
Cu 58.785677 53.540459 50.152318
Cu 58.099542 54.672696 52.282557
Cu 60.480790 53.915478 51.973700
Cu 59.588516 55.873757 50.645649
Cu 61.938242 55.106910 50.343385
Cu 61.275236 56.246935 52.470438
Cu 47.692916 51.884853 50.396716
Cu 46.978985 53.018815 52.512136
Cu 49.359890 52.260366 52.211398
Cu 48.471479 54.207462 50.876984
Cu 50.854075 53.458989 50.578843
Cu 50.155197 54.590881 52.709235
Cu 52.537878 53.841358 52.400257
Cu 51.649072 55.789160 51.077764
Cu 54.030764 55.037392 50.774968
Cu 53.337330 56.171055 52.904460
Cu 55.717012 55.421583 52.594236
Cu 54.830320 57.370436 51.271871
Cu 57.207195 56.616881 50.966485
Cu 56.518341 57.753756 53.097489
Cu 58.895569 57.000186 52.793228
Cu 58.010364 58.948875 51.459010
Cu 60.369565 58.185929 51.170196
Cu 59.689544 59.336746 53.287685
Cu 46.122854 54.969688 51.198849
Cu 47.774297 55.346637 53.024295
Cu 46.898985 57.286055 51.692922
Cu 49.275542 56.535625 51.392101
Cu 48.570407 57.666589 53.526388
Cu 50.955383 56.922715 53.213901
Cu 50.071806 58.870995 51.886286
Cu 52.451687 58.114604 51.586432
Cu 51.757817 59.248185 53.723737
Cu 54.136476 58.503914 53.407999
Cu 53.246771 60.449148 52.080011
Cu 55.628075 59.693226 51.779708
Cu 54.943327 60.834322 53.915239
Cu 57.313056 60.087988 53.606313
Cu 56.425811 62.021475 52.274212
Cu 58.779941 61.261040 51.971137
Cu 47.707897 59.588671 52.198512
Cu 49.373076 59.995455 54.022052
Cu 50.880701 61.174397 52.407204
Cu 52.563212 61.581149 54.216703
Cu 54.061851 62.746978 52.586206
Cu 51.828596 47.242782 52.713403
Cu 54.207663 46.511646 52.407532
Cu 53.505473 47.614478 54.533561
Cu 55.885588 46.867651 54.232097
Cu 55.009292 48.818749 52.906290
Cu 57.386428 48.063008 52.594728
Cu 56.690983 49.200615 54.725063
Cu 59.075724 48.453345 54.426748
Cu 58.179242 50.394410 53.099708
Cu 60.541739 49.660071 52.794012
Cu 59.878393 50.782211 54.922412
Cu 61.355820 51.978400 53.294717
Cu 49.460767 48.006657 53.026359
Cu 48.759256 49.112054 55.161115
Cu 51.135744 48.360812 54.842487
Cu 50.244481 50.319402 53.527452
Cu 52.626779 49.568767 53.216804
Cu 51.930459 50.695044 55.351311
Cu 54.312324 49.944886 55.040801
Cu 53.424937 51.894675 53.720189
Cu 55.802495 51.149392 53.411069
Cu 55.111470 52.277745 55.544340
Cu 57.493417 51.526085 55.234899
Cu 56.604112 53.474921 53.914170
Cu 58.979927 52.726673 53.604449
Cu 58.293603 53.857919 55.739565
Cu 60.674503 53.102163 55.424505
Cu 59.779980 55.059132 54.109271
Cu 62.136459 54.307257 53.799780
Cu 61.469815 55.429985 55.936664
Cu 47.862959 51.062372 53.836250
Cu 47.173564 52.201865 55.978362
Cu 49.553231 51.448614 55.655572
Cu 48.668820 53.389668 54.339529
Cu 51.049559 52.646309 54.030684
Cu 50.349258 53.776104 56.166243
Cu 52.731788 53.027217 55.854564
Cu 51.844688 54.973879 54.534630
Cu 54.224400 54.224400 54.224400
Cu 53.531240 55.356913 56.358772
Cu 55.910922 54.607442 56.048543
Cu 55.023863 56.554125 54.728611
Cu 57.399241 55.802491 54.418116
Cu 56.712402 56.938978 56.554497
Cu 59.088910 56.188434 56.237402
Cu 58.204319 58.129398 54.921348
Cu 60.585841 57.386428 54.612550
Cu 59.884123 58.519796 56.753911
Cu 46.312341 54.141543 54.649020
Cu 47.968010 54.533322 56.475100
Cu 47.092980 56.470400 55.154083
Cu 49.468873 55.722127 54.844351
Cu 48.764121 56.853272 56.977198
Cu 51.149444 56.107938 56.670911
Cu 50.269558 58.054390 55.349092
Cu 52.646305 57.299408 55.037731
Cu 51.951158 58.436432 57.167912
Cu 54.330537 57.689137 56.865009
Cu 53.439508 59.630051 55.542510
Cu 55.822021 58.880033 55.231996
Cu 55.137040 60.021006 57.366049
Cu 57.506769 59.274673 57.057117
Cu 56.620204 61.206018 55.735397
Cu 58.988033 60.442143 55.422441
Cu 47.907061 58.788729 55.654788
Cu 49.567655 59.178504 57.488286
Cu 51.062372 60.385792 55.854072
Cu 52.757791 60.764198 57.682935
Cu 54.241137 61.937154 56.041268
Cu 52.022989 46.427325 56.174588
Cu 54.386949 45.701822 55.862594
Cu 53.698559 46.807643 57.987276
Cu 55.202029 47.999652 56.368789
Cu 57.568099 47.274403 56.041596
Cu 56.882697 48.390687 58.181034
Cu 58.376994 49.577805 56.562514
Cu 60.740903 48.860129 56.250288
Cu 60.067046 49.973173 58.375858
Cu 61.549815 51.162745 56.755878
Cu 49.668859 47.187760 56.477663
Cu 51.334287 47.552261 58.295495
Cu 50.438436 49.499925 56.989790
Cu 52.820725 48.755574 56.669092
Cu 52.117699 49.881331 58.806106
Cu 54.511868 49.127298 58.493995
Cu 53.618480 51.078364 57.176929
Cu 55.997113 50.334196 56.862368
Cu 55.302923 51.468556 58.998577
Cu 57.686800 50.705435 58.687717
Cu 56.799728 52.659640 57.371036
Cu 59.173258 51.913175 57.056699
Cu 58.491120 53.049313 59.194988
Cu 60.861321 52.287784 58.876798
Cu 59.977321 54.241338 57.571816
Cu 62.325946 53.479112 57.249951
Cu 48.079235 50.262871 57.278604
Cu 49.751644 50.636576 59.110665
Cu 48.860284 52.575043 57.803151
Cu 51.241605 51.831919 57.482315
Cu 50.539562 52.956422 59.619460
Cu 52.930418 52.215765 59.307866
Cu 52.037201 54.159576 57.991901
Cu 54.418036 53.411408 57.673832
Cu 53.727461 54.538433 59.810551
Cu 56.099965 53.791225 59.501259
Cu 55.218449 55.740852 58.186009
Cu 57.594725 54.989811 57.869957
Cu 56.912983 56.124405 60.008341
Cu 59.278374 55.371948 59.691949
Cu 58.399169 57.316457 58.385177
Cu 60.755884 56.563947 58.052084
Cu 46.510558 53.341890 58.105415
Cu 48.168761 53.720468 59.926970
Cu 47.287569 55.654561 58.615168
Cu 49.663123 54.908341 58.296482
Cu 48.963037 56.035079 60.427909
Cu 51.343883 55.300299 60.126737
Cu 50.460611 57.238575 58.812460
Cu 52.839218 56.487533 58.489909
Cu 52.147321 57.617836 60.621590
Cu 54.518814 56.878436 60.320459
Cu 53.635576 58.816728 59.006184
Cu 56.015657 58.065942 58.684089
Cu 55.331523 59.200610 60.816489
Cu 57.695796 58.455992 60.508272
Cu 56.814395 60.389981 59.196457
Cu 59.167645 59.633242 58.877701
Cu 48.095602 57.960872 59.105081
Cu 51.267021 59.552414 59.289097
Cu 54.449555 61.119179 59.492773
Cu 53.012783 47.947508 60.094553
Cu 53.810100 50.260094 60.623662
Cu 56.184658 49.534789 60.300950
Cu 56.999030 51.845189 60.818239
Cu 59.366264 51.105579 60.482218
Cu 51.445195 51.027458 60.918806
Cu 52.225005 53.348743 61.440602
Cu 54.612398 52.595368 61.136197
Cu 55.413935 54.933838 61.635178
Cu 57.776881 54.174697 61.305141
Cu 49.854715 54.101183 61.722184
Cu 53.037419 55.667366 61.923000
Cu 56.208196 57.259255 62.109848
