369
Generated rotated structure
Cu 49.789196 48.190451 48.061360
Cu 51.412579 46.459051 48.699479
Cu 53.439171 47.717652 47.974335
Cu 55.622769 46.615048 48.382808
Cu 57.403781 47.912824 47.293754
Cu 49.709292 51.860105 45.967789
Cu 51.051493 49.974689 46.883857
Cu 53.401889 51.985538 45.512214
Cu 55.989075 49.809331 46.509118
Cu 57.192620 51.650867 45.343189
Cu 51.396102 53.372166 45.015214
Cu 55.414297 53.214689 44.713555
Cu 49.647466 46.327168 52.618953
Cu 51.817533 45.477321 53.534153
Cu 51.647207 46.123619 51.143384
Cu 53.820639 45.284218 52.054477
Cu 56.050538 45.370938 53.172703
Cu 55.848492 46.012730 50.780894
Cu 58.092530 46.046854 51.882057
Cu 46.648893 50.029761 51.445192
Cu 47.801206 47.844843 51.882040
Cu 48.233359 49.106986 49.767812
Cu 49.482305 46.982806 50.219317
Cu 50.245460 50.140062 50.833854
Cu 52.043294 48.557519 51.547055
Cu 51.818426 49.209083 49.135323
Cu 53.626921 45.868341 49.648539
Cu 53.771193 50.031284 50.483830
Cu 55.585335 48.460107 51.226238
Cu 55.373446 49.079620 48.814153
Cu 57.850615 46.778530 49.486755
Cu 57.302836 49.944532 50.184219
Cu 59.817252 47.524942 50.822232
Cu 59.102433 48.850662 48.838211
Cu 61.000655 49.652297 50.225106
Cu 46.571981 53.734358 49.329917
Cu 47.078837 51.286546 49.328579
Cu 48.156167 52.810241 47.655267
Cu 48.689947 50.373807 47.667457
Cu 50.175227 53.244163 49.062972
Cu 51.962652 51.627513 49.760265
Cu 51.750413 52.319898 47.353434
Cu 53.492816 49.676890 46.437674
Cu 53.698695 53.114276 48.721649
Cu 55.511334 51.524043 49.430081
Cu 55.387589 52.186687 47.006850
Cu 58.468162 50.090710 46.774606
Cu 57.242479 53.055180 48.430302
Cu 60.333610 50.930058 48.186253
Cu 59.030629 52.524825 46.764912
Cu 60.931781 53.352938 48.132377
Cu 47.679129 55.260556 47.667701
Cu 49.330472 54.331342 46.046392
Cu 49.336191 56.862582 46.643610
Cu 51.903993 54.723987 48.019389
Cu 51.379609 55.734876 45.781634
Cu 53.513816 54.474446 45.687946
Cu 53.564554 56.959622 45.591215
Cu 55.422833 54.609411 47.695091
Cu 55.670070 55.620991 45.257900
Cu 57.658767 54.108051 45.394051
Cu 57.891721 56.554417 45.864782
Cu 59.629254 54.952057 46.701749
Cu 51.523882 58.117043 46.452224
Cu 55.804425 57.960831 46.057672
Cu 50.637000 46.090265 57.636560
Cu 51.987053 44.859194 55.937068
Cu 54.230009 45.542722 56.815327
Cu 56.233094 44.727447 55.562609
Cu 58.010495 45.932715 56.801557
Cu 46.582232 48.227651 56.003343
Cu 48.400288 46.672113 56.688253
Cu 47.912164 47.045028 54.259540
Cu 49.781961 45.526442 54.973390
Cu 50.655840 48.840459 55.654546
Cu 52.458056 47.260003 56.381814
Cu 52.236369 47.907495 53.957833
Cu 54.001540 44.716188 54.469251
Cu 54.177332 48.728492 55.311000
Cu 55.977276 47.162315 56.037259
Cu 55.806625 47.819562 53.629117
Cu 58.263695 45.517984 54.330295
Cu 57.712190 48.652611 55.022645
Cu 60.150372 46.480172 55.647025
Cu 60.109247 46.776965 53.179310
Cu 61.736204 48.081260 54.569822
Cu 45.590737 50.447717 55.484199
Cu 45.066127 50.960956 53.115353
Cu 46.257916 48.816289 53.601079
Cu 47.063887 51.995357 54.193372
Cu 48.789539 50.397019 55.060341
Cu 48.678552 50.909486 52.615529
Cu 49.579578 48.701533 53.406316
Cu 50.585113 51.900853 53.879957
Cu 52.381311 50.319082 54.595660
Cu 52.178294 50.971628 52.181581
Cu 53.976724 49.374062 52.902548
Cu 54.101584 51.804261 53.554739
Cu 55.899371 50.226569 54.277491
Cu 55.699788 50.876181 51.860760
Cu 58.312287 48.421265 52.605024
Cu 57.618797 51.715521 53.245135
Cu 59.435992 50.144426 54.005445
Cu 59.214675 50.759254 51.586220
Cu 61.834501 48.239519 52.095788
Cu 61.131711 51.634353 52.952346
Cu 62.860370 50.282020 54.147349
Cu 62.881396 50.463440 51.646915
Cu 45.255810 53.450025 53.208558
Cu 45.014346 54.687705 51.031365
Cu 45.538020 52.242692 51.037722
Cu 46.998421 55.076548 52.463738
Cu 48.783176 53.474283 53.156031
Cu 48.583287 54.163510 50.753535
Cu 50.367954 52.552980 51.459624
Cu 50.508185 54.969178 52.126672
Cu 52.303601 53.385945 52.837545
Cu 52.104907 54.047395 50.424957
Cu 53.900913 52.453769 51.133077
Cu 54.025013 54.874580 51.803725
Cu 55.822920 53.292930 52.518548
Cu 55.624216 53.950105 50.106217
Cu 57.436546 52.360214 50.820955
Cu 57.543673 54.786287 51.491530
Cu 59.344131 53.200555 52.202417
Cu 59.150123 53.889575 49.804432
Cu 62.176198 51.768559 49.634437
Cu 61.072270 54.700991 51.189172
Cu 62.834904 52.983418 51.717318
Cu 62.832324 54.160705 49.508480
Cu 45.359945 56.927812 52.113676
Cu 45.913054 56.129419 49.204134
Cu 46.336127 58.329522 50.281731
Cu 48.708201 56.567713 51.428065
Cu 47.584946 57.692534 48.210045
Cu 49.472989 56.290154 49.066889
Cu 50.347004 58.169427 50.450120
Cu 52.227979 56.458976 51.095988
Cu 51.821268 57.118061 48.726488
Cu 53.829138 55.542982 49.381800
Cu 53.942677 57.947011 50.048363
Cu 55.745148 56.367003 50.778972
Cu 55.743247 57.003289 48.368535
Cu 58.061308 56.045543 48.304516
Cu 57.556542 57.974295 49.795513
Cu 59.275956 56.295495 50.477698
Cu 59.833337 57.403483 47.176176
Cu 61.497003 55.790800 48.148476
Cu 61.506684 58.190295 48.838189
Cu 62.574004 56.492590 50.303388
Cu 47.945249 59.926702 49.227001
Cu 49.505102 59.249301 47.393706
Cu 50.161012 61.034620 49.017310
Cu 52.128719 59.525897 49.362294
Cu 51.671153 60.501736 47.120269
Cu 53.731071 59.322805 46.371167
Cu 53.855329 60.963488 48.269523
Cu 55.679414 59.432991 49.041622
Cu 55.979926 60.341647 46.749967
Cu 58.047455 58.982686 46.407555
Cu 57.543347 61.041031 48.560767
Cu 59.608272 59.676042 48.212431
Cu 50.905453 47.407769 59.888033
Cu 52.859098 46.399881 58.721881
Cu 54.593471 47.485312 60.179277
Cu 56.195297 46.506448 58.434796
Cu 58.287788 47.414180 59.431490
Cu 46.942116 50.258505 59.610611
Cu 48.840528 48.772758 60.236369
Cu 47.294270 48.120170 58.388366
Cu 49.722815 48.391749 57.927670
Cu 50.892258 50.474505 58.653287
Cu 52.769386 49.015809 59.407178
Cu 52.588617 49.670833 57.006784
Cu 54.390647 48.087977 57.737489
Cu 54.506123 50.501789 58.400437
Cu 56.320081 48.922903 59.086506
Cu 56.096147 49.576723 56.687269
Cu 59.097055 48.140461 57.185779
Cu 58.101796 50.279373 57.998680
Cu 60.503551 48.522098 59.221799
Cu 61.577564 47.957013 57.051483
Cu 62.112673 50.119278 58.167069
Cu 45.874796 51.956210 58.145412
Cu 45.463608 52.909384 55.880329
Cu 47.433313 50.280690 57.157605
Cu 47.376530 53.747809 57.259629
Cu 49.172844 52.153305 57.971102
Cu 48.985813 52.830292 55.573841
Cu 50.785941 51.251292 56.288702
Cu 50.905127 53.662513 56.957269
Cu 52.703652 52.081797 57.669828
Cu 52.506879 52.737308 55.257142
Cu 54.302641 51.156928 55.972697
Cu 54.423787 53.574220 56.645075
Cu 56.220822 51.989824 57.352812
Cu 56.019267 52.646490 54.938970
Cu 57.813741 51.068043 55.655006
Cu 57.940615 53.479622 56.322128
Cu 59.740600 51.881087 57.020735
Cu 59.530812 52.560670 54.622753
Cu 61.083933 50.101871 55.888730
Cu 61.450379 53.372251 55.985062
Cu 63.088855 51.520988 56.335124
Cu 63.293248 52.737031 54.169033
Cu 45.613896 55.465382 56.731482
Cu 45.155552 55.711768 54.279767
Cu 47.187086 54.401886 54.859401
Cu 47.317089 56.814446 55.496454
Cu 49.104669 55.248245 56.246383
Cu 48.917988 55.888130 53.826047
Cu 50.710168 54.314388 54.543133
Cu 50.830003 56.733279 55.203665
Cu 52.625880 55.155870 55.930252
Cu 52.429533 55.802310 53.509830
Cu 54.224400 54.224400 54.224400
Cu 54.347216 56.644539 54.894061
Cu 56.145199 55.062855 55.611255
Cu 55.941921 55.711492 53.191658
Cu 57.738633 54.134412 53.905667
Cu 57.863687 56.547947 54.568843
Cu 59.665624 54.974517 55.292769
Cu 59.462987 55.618507 52.874959
Cu 61.261714 54.046914 53.589399
Cu 61.384913 56.453443 54.255428
Cu 63.192990 54.998775 55.240242
Cu 62.985192 55.539416 52.568471
Cu 45.588430 58.166780 54.301451
Cu 47.364867 58.346929 52.560070
Cu 46.712596 60.367540 53.878978
Cu 49.012808 58.304373 54.443355
Cu 46.871236 60.491787 51.397317
Cu 50.635058 57.380757 52.793794
Cu 50.736610 59.796189 53.426155
Cu 52.549429 58.222231 54.171309
Cu 52.352653 58.872078 51.761530
Cu 54.146159 57.291872 52.476103
Cu 54.271467 59.720308 53.137800
Cu 56.067489 58.129718 53.853140
Cu 55.860183 58.777966 51.442016
Cu 57.662858 57.197508 52.160098
Cu 57.792960 59.608341 52.794254
Cu 59.659261 58.051781 53.388459
Cu 61.154530 60.328630 50.060434
Cu 61.015487 58.168110 51.291195
Cu 61.866568 60.221149 52.445457
Cu 62.858063 58.001083 52.964601
Cu 48.298428 61.968628 52.801775
Cu 49.351745 60.308339 51.263021
Cu 50.438305 62.516085 51.647243
Cu 52.471524 61.286484 52.411541
Cu 52.253503 61.942352 50.014004
Cu 54.058152 60.360823 50.711311
Cu 54.218791 62.906078 51.633473
Cu 55.990744 61.188797 52.066986
Cu 55.589703 62.048920 49.726919
Cu 58.725985 60.057051 50.521130
Cu 57.811800 62.358535 50.812240
Cu 60.048512 61.776687 51.760547
Cu 52.468874 48.107153 61.698833
Cu 56.777647 47.947064 61.328531
Cu 48.615463 51.045317 61.272624
Cu 50.401345 49.466114 62.041245
Cu 50.557079 51.894383 62.584018
Cu 52.644375 50.487969 62.391128
Cu 52.705553 51.445511 60.080265
Cu 54.717729 49.125995 62.077633
Cu 54.884246 51.489178 62.857585
Cu 56.924918 50.331757 61.996576
Cu 56.627532 51.330739 59.722312
Cu 58.943698 49.199499 61.055094
Cu 59.112609 51.586218 61.805190
Cu 60.863854 50.756266 60.238755
Cu 45.616476 54.288095 58.940320
Cu 46.951797 52.658000 60.300324
Cu 47.517019 55.095862 60.316423
Cu 48.819546 53.496743 61.747051
Cu 49.298677 54.559225 58.644368
Cu 50.387492 52.403257 60.144284
Cu 51.206321 55.393620 60.018498
Cu 53.025967 53.839389 60.753709
Cu 52.824584 54.498695 58.342583
Cu 54.619662 52.905817 59.067000
Cu 54.750105 55.334524 59.727151
Cu 56.544807 53.724813 60.429411
Cu 56.343893 54.401405 58.023843
Cu 58.975811 52.158646 59.381911
Cu 58.273573 55.204637 59.385828
Cu 60.769671 53.188244 60.781099
Cu 59.865513 54.285290 57.695265
Cu 62.535746 52.319381 59.244666
Cu 61.876819 54.714442 59.118883
Cu 63.434454 53.761095 57.417435
Cu 45.567404 57.985360 56.801885
Cu 46.272602 56.680241 58.814363
Cu 47.448145 58.796503 58.223694
Cu 48.115190 57.518742 60.262547
Cu 49.234125 57.689546 56.862580
Cu 51.012254 56.088586 57.627845
Cu 51.145964 58.504268 58.264581
Cu 52.937466 56.924757 59.018719
Cu 52.749012 57.572619 56.588040
Cu 54.547887 55.995031 57.315722
Cu 54.677607 58.417516 57.964970
Cu 56.486148 56.821287 58.688535
Cu 56.270506 57.477172 56.267219
Cu 58.080846 55.895820 56.989176
Cu 58.203340 58.308738 57.614946
Cu 61.369963 57.162254 59.120221
Cu 59.770248 57.539314 55.833271
Cu 62.910781 56.206108 57.411078
Cu 61.799907 58.419039 57.003608
Cu 63.382673 57.487844 55.333447
Cu 46.614299 60.209281 56.353012
Cu 48.631548 60.923858 57.626567
Cu 48.339553 61.671835 55.269490
Cu 50.136513 60.027535 55.843776
Cu 50.356270 62.401946 56.566743
Cu 52.863465 59.988693 57.222562
Cu 52.642175 60.629238 54.819683
Cu 54.472076 59.074738 55.546252
Cu 54.628161 63.164582 56.394323
Cu 56.405506 59.891281 56.901745
Cu 56.212431 60.541305 54.490967
Cu 58.869222 59.747267 55.042484
Cu 58.801334 62.121632 55.829847
Cu 60.647594 60.603957 56.566760
Cu 60.536636 61.403772 54.189260
Cu 62.190884 59.632511 54.847721
Cu 50.185105 62.930816 54.118505
Cu 52.398262 63.077862 55.276097
Cu 52.215706 63.721353 52.886191
Cu 54.447260 63.732612 53.979549
Cu 56.631267 62.971479 54.914647
Cu 56.461747 63.589605 52.511732
Cu 58.666839 62.922358 53.475410
Cu 52.778730 52.827809 63.190900
Cu 57.069191 52.713924 62.667166
Cu 49.418171 55.923975 61.683888
Cu 50.790033 54.340749 63.054749
Cu 51.256180 56.797933 63.105611
Cu 53.034503 55.234111 63.735245
Cu 53.061211 56.262113 61.441950
Cu 54.934985 53.974354 62.760854
Cu 55.046911 56.463262 62.936586
Cu 57.052698 55.076634 63.433586
Cu 56.698387 56.128902 61.095366
Cu 59.118328 54.117458 62.402408
Cu 58.739508 56.588695 62.481011
Cu 60.292633 55.638559 60.793533
Cu 49.346367 59.598138 59.610589
Cu 49.980638 58.358090 61.674194
Cu 51.045019 60.535976 61.155046
Cu 52.459725 58.639469 61.939682
Cu 53.075354 59.369180 59.634647
Cu 54.955984 58.771910 62.011126
Cu 55.009629 60.731148 60.474465
Cu 57.397307 58.474111 61.564943
Cu 56.630374 59.239717 59.313477
Cu 59.758853 58.074993 60.781343
Cu 58.659604 60.258349 60.387440
Cu 60.215441 59.341814 58.680988
Cu 50.598185 61.670270 58.962045
Cu 52.826031 61.833752 60.065992
Cu 52.600308 62.436070 57.667906
Cu 54.821879 62.580459 58.800261
Cu 57.036221 61.989749 59.749322
Cu 56.801593 62.325181 57.305416
Cu 58.966495 61.465994 58.229483
