249
Generated rotated structure
Cu 54.177090 46.886276 50.275511
Cu 57.405090 48.205658 50.997690
Cu 60.633543 49.524472 51.718887
Cu 52.052732 47.821648 49.352785
Cu 54.185244 48.084440 48.090442
Cu 53.123906 50.080797 49.134023
Cu 55.275128 49.133598 50.068413
Cu 55.273540 50.326085 47.857268
Cu 57.405281 49.409082 48.797225
Cu 56.352919 51.404255 49.857841
Cu 58.493914 50.448838 50.787990
Cu 58.506517 51.647124 48.580018
Cu 60.626484 50.716420 49.530416
Cu 59.585362 52.721037 50.578518
Cu 61.711361 51.768297 51.512025
Cu 50.997660 51.026896 48.214598
Cu 53.146755 51.284141 46.947516
Cu 52.071941 53.276480 47.998580
Cu 54.221164 52.342883 48.931904
Cu 54.216937 53.535857 46.716818
Cu 56.363825 52.589888 47.641964
Cu 55.302737 54.594519 48.724323
Cu 57.434492 53.655893 49.650262
Cu 57.449914 54.856896 47.439569
Cu 59.565899 53.907092 48.382551
Cu 58.533397 55.916719 49.443075
Cu 60.655980 54.973419 50.373770
Cu 49.942636 54.231745 47.075243
Cu 52.080119 54.479435 45.818265
Cu 51.020454 56.475571 46.868382
Cu 53.163391 55.548676 47.789100
Cu 55.307374 55.782150 46.532839
Cu 54.248553 57.794654 47.590668
Cu 56.382177 56.863917 48.508678
Cu 58.521359 57.111415 47.258241
Cu 57.476907 59.113767 48.311759
Cu 59.601265 58.178394 49.234484
Cu 52.044804 46.638084 51.552138
Cu 54.169307 45.721778 52.478890
Cu 53.108256 47.695809 53.564685
Cu 55.249480 46.756967 54.485182
Cu 55.267210 47.947201 52.272229
Cu 57.389591 47.030931 53.214182
Cu 56.337193 49.018156 54.289485
Cu 58.483680 48.078505 55.208205
Cu 58.486030 49.262456 52.991814
Cu 60.611026 48.353953 53.918972
Cu 59.569203 50.335840 55.009066
Cu 61.703222 50.584647 53.711331
Cu 49.929985 47.588380 50.637523
Cu 48.846291 49.576337 51.703930
Cu 50.978994 48.633338 52.639833
Cu 50.987002 49.831811 50.413103
Cu 53.125232 48.895202 51.352754
Cu 52.060913 50.896708 52.426004
Cu 54.201078 49.954375 53.355594
Cu 54.208909 51.146917 51.140415
Cu 56.345330 50.210806 52.073169
Cu 55.285691 52.216000 53.148021
Cu 57.426111 51.272168 54.076568
Cu 57.434099 52.464774 51.861424
Cu 59.565512 51.526789 52.792514
Cu 58.511950 53.532690 53.868169
Cu 60.649510 52.584843 54.801731
Cu 60.657645 53.783368 52.575030
Cu 62.761901 52.831678 53.506169
Cu 61.732419 54.841786 54.584696
Cu 48.863609 50.784980 49.510884
Cu 47.789290 52.787316 50.563051
Cu 49.923745 51.842044 51.503774
Cu 49.935027 53.027521 49.277649
Cu 52.072387 52.092214 50.217199
Cu 51.006906 54.098592 51.288357
Cu 53.147487 53.157470 52.219284
Cu 53.154850 54.348960 50.002711
Cu 55.292111 53.408673 50.939341
Cu 54.232331 55.415919 52.011072
Cu 56.370533 54.474451 52.939814
Cu 56.380040 55.666817 50.723721
Cu 58.513261 54.724043 51.657093
Cu 57.457943 56.734574 52.730522
Cu 59.591138 55.792273 53.664974
Cu 59.605671 56.979080 51.439576
Cu 61.715357 56.036381 52.383965
Cu 60.675418 58.052765 53.443818
Cu 47.824704 53.983847 48.365178
Cu 48.867425 55.047905 50.360702
Cu 48.888237 56.227170 48.145083
Cu 51.020418 55.289253 49.080912
Cu 49.947734 57.296907 50.153362
Cu 52.092745 56.359114 51.079955
Cu 52.106645 57.548433 48.860859
Cu 54.240320 56.605449 49.801118
Cu 53.177690 58.616160 50.879262
Cu 55.317778 57.676906 51.800930
Cu 55.325465 58.863687 49.580444
Cu 57.460697 57.920840 50.520673
Cu 56.408682 59.936939 51.597743
Cu 58.537942 58.999411 52.522601
Cu 58.546655 60.173733 50.304277
Cu 60.656620 59.227146 51.233826
Cu 49.975580 58.461571 47.952372
Cu 51.038031 59.550595 49.939535
Cu 53.189377 59.790429 48.680663
Cu 54.272231 60.872134 50.662559
Cu 56.417299 61.093747 49.392455
Cu 50.973338 47.456295 54.848356
Cu 53.113565 46.533162 55.773199
Cu 52.040118 48.511861 56.851057
Cu 54.176569 47.576666 57.786241
Cu 54.197253 48.768901 55.570255
Cu 56.332165 47.821386 56.499426
Cu 55.271110 49.832640 57.569538
Cu 57.410769 48.898205 58.509265
Cu 57.410990 50.082078 56.288704
Cu 59.535132 49.157103 57.208777
Cu 58.501066 51.151893 58.295438
Cu 60.632160 51.403022 57.007640
Cu 48.848360 48.411163 53.920587
Cu 47.773382 50.396035 55.004982
Cu 49.910858 49.449389 55.926199
Cu 49.915952 50.653988 53.710651
Cu 52.056457 49.711146 54.640480
Cu 50.990857 51.714226 55.718278
Cu 53.131022 50.771894 56.647870
Cu 53.139542 51.965922 54.432611
Cu 55.276337 51.028805 55.359813
Cu 54.216469 53.032881 56.437728
Cu 56.356055 52.089686 57.368845
Cu 56.362631 53.282921 55.153151
Cu 58.497360 52.342987 56.080380
Cu 57.441894 54.350208 57.160443
Cu 59.581375 53.400895 58.088098
Cu 59.583163 54.604144 55.871811
Cu 61.699138 53.662168 56.793451
Cu 60.659510 55.661484 57.885749
Cu 47.775090 51.589123 52.782620
Cu 46.716381 53.607014 53.864104
Cu 48.857662 52.656527 54.783826
Cu 48.865637 53.844656 52.576989
Cu 51.005706 52.909197 53.504843
Cu 49.936850 54.916110 54.580631
Cu 52.078267 53.974349 55.508986
Cu 52.086169 55.165879 53.295649
Cu 54.224400 54.224400 54.224400
Cu 53.163109 56.232800 55.300779
Cu 55.301313 55.291330 56.229516
Cu 55.309258 56.482878 54.016189
Cu 57.443094 55.539603 54.943957
Cu 56.387887 57.552092 56.022796
Cu 58.525055 56.606756 56.945026
Cu 58.532848 57.794812 54.738149
Cu 60.673710 56.859677 55.666180
Cu 59.602509 58.872463 56.744870
Cu 46.749662 54.786632 51.655349
Cu 47.799290 55.863957 53.647069
Cu 47.816640 57.045778 51.441160
Cu 49.951440 56.105813 52.368420
Cu 48.879597 58.112960 53.439734
Cu 51.022689 57.176632 54.372232
Cu 51.037810 58.366722 52.160096
Cu 53.172463 57.419995 53.088987
Cu 52.111607 59.430644 54.159315
Cu 54.247722 58.494425 55.093206
Cu 54.251547 59.679899 52.878545
Cu 56.392343 58.737654 53.808320
Cu 55.340544 60.752991 54.884115
Cu 57.469806 59.815462 55.808967
Cu 57.475462 60.992505 53.600444
Cu 59.600440 60.037637 54.528213
Cu 48.913668 59.291697 51.240023
Cu 49.965120 60.370295 53.240595
Cu 52.116635 60.627414 51.949374
Cu 53.199320 61.691833 53.963618
Cu 55.335235 61.915638 52.675601
Cu 49.902145 48.275067 58.144523
Cu 52.031501 47.355053 59.056345
Cu 50.971893 49.335033 60.137041
Cu 53.123335 49.585113 58.868356
Cu 55.259423 48.658371 59.768137
Cu 54.200247 50.654146 60.858132
Cu 56.342155 50.900367 59.587941
Cu 58.473220 49.987229 60.496428
Cu 57.428346 51.973229 61.580418
Cu 59.560563 52.221630 60.303717
Cu 47.792180 49.221654 57.214974
Cu 48.847535 50.270406 59.214316
Cu 48.843129 51.469720 57.009224
Cu 50.988103 50.527960 57.928127
Cu 49.915403 52.532081 59.005725
Cu 52.066623 51.584883 59.940122
Cu 52.068760 52.781983 57.725079
Cu 54.208480 51.843351 58.647682
Cu 53.146063 53.854281 59.724477
Cu 55.285409 52.900124 60.659700
Cu 55.293950 54.099840 58.446089
Cu 57.428382 53.159547 59.367888
Cu 56.376859 55.172320 60.450220
Cu 58.506164 54.217055 61.373557
Cu 58.513773 55.421279 59.171151
Cu 60.624096 54.464953 60.083622
Cu 46.733443 52.412419 56.064835
Cu 47.792820 53.475381 58.075030
Cu 47.791155 54.665432 55.873770
Cu 49.935539 53.724757 56.791707
Cu 48.863438 55.727763 57.870282
Cu 51.014308 54.792907 58.798538
Cu 51.014701 55.984026 56.587376
Cu 53.156689 55.040127 57.509459
Cu 52.095881 57.044545 58.590959
Cu 54.227636 56.105917 59.516896
Cu 54.239891 57.301883 57.308385
Cu 56.376413 56.356586 58.231601
Cu 55.324894 58.368003 59.314777
Cu 57.451140 57.421904 60.234202
Cu 57.461798 58.616989 58.035697
Cu 59.585191 57.663820 58.937916
Cu 45.686899 55.617122 54.942631
Cu 46.737439 56.680503 56.936775
Cu 46.745578 57.864153 54.737469
Cu 48.883288 56.922011 55.656286
Cu 47.815257 58.924328 56.729913
Cu 49.954886 57.999962 57.660810
Cu 49.962770 59.186344 55.456986
Cu 52.103470 58.237994 56.375631
Cu 51.043710 60.243142 57.451110
Cu 53.173672 59.315202 58.380387
Cu 53.181590 60.501599 56.176571
Cu 55.323568 59.553598 57.096046
Cu 54.271710 61.562524 58.173289
Cu 56.396068 60.627152 59.096015
Cu 56.403996 61.810716 56.896662
Cu 58.518815 60.860420 57.811277
Cu 47.837774 60.094847 54.529828
Cu 51.059209 61.417869 55.234618
Cu 54.279493 62.727022 55.969910
Cu 49.927441 51.337385 61.190559
Cu 50.998886 53.591904 61.009231
Cu 53.141426 52.666650 61.915961
Cu 54.231863 54.912943 61.731982
Cu 56.368681 53.969365 62.630535
Cu 48.882901 54.541708 60.066249
Cu 49.942283 56.801676 59.868782
Cu 52.084975 55.858912 60.806836
Cu 53.175260 58.122715 60.591532
Cu 55.302045 57.164659 61.501284
Cu 47.822316 57.732380 58.918384
Cu 51.043519 59.039718 59.651575
Cu 54.263556 60.364360 60.358358
