369
Generated rotated structure
Cu 51.302376 53.122547 44.829869
Cu 53.721847 52.360548 44.514456
Cu 54.534669 54.729196 45.027091
Cu 56.954140 53.967197 44.711678
Cu 57.766963 56.335845 45.224313
Cu 49.695727 56.253194 45.657917
Cu 52.115198 55.491195 45.342504
Cu 52.928021 57.859843 45.855139
Cu 55.347492 57.097844 45.539726
Cu 56.160314 59.466492 46.052361
Cu 50.508550 58.621842 46.170552
Cu 53.740843 60.228491 46.367774
Cu 53.106247 49.163852 47.515135
Cu 55.525718 48.401853 47.199722
Cu 54.623783 50.381201 45.857089
Cu 56.338540 50.770501 47.712357
Cu 58.758011 50.008502 47.396944
Cu 57.856076 51.987849 46.054311
Cu 59.570833 52.377150 47.909579
Cu 48.267305 50.687850 48.145961
Cu 50.686776 49.925851 47.830548
Cu 49.784841 51.905199 46.487915
Cu 52.204312 51.143200 46.172502
Cu 51.499598 52.294499 48.343183
Cu 53.919069 51.532500 48.027770
Cu 53.017134 53.511848 46.685137
Cu 55.436605 52.749849 46.369724
Cu 54.731891 53.901148 48.540405
Cu 57.151362 53.139149 48.224992
Cu 56.249427 55.118497 46.882359
Cu 58.668898 54.356497 46.566946
Cu 57.964185 55.507797 48.737627
Cu 60.383656 54.745798 48.422214
Cu 59.481720 56.725146 47.079581
Cu 61.196478 57.114446 48.934849
Cu 46.660656 53.818498 48.974009
Cu 49.080127 53.056498 48.658596
Cu 48.178192 55.035846 47.315963
Cu 50.597663 54.273847 47.000550
Cu 49.892949 55.425147 49.171231
Cu 52.312420 54.663147 48.855818
Cu 51.410485 56.642495 47.513185
Cu 53.829956 55.880496 47.197772
Cu 53.125243 57.031795 49.368453
Cu 55.544714 56.269796 49.053040
Cu 54.642778 58.249144 47.710407
Cu 57.062249 57.487145 47.394994
Cu 56.357536 58.638444 49.565675
Cu 58.777007 57.876445 49.250262
Cu 57.875071 59.855793 47.907629
Cu 59.589829 60.245093 49.762897
Cu 47.473478 56.187146 49.486644
Cu 48.991014 57.404494 47.828598
Cu 48.286301 58.555794 49.999279
Cu 50.705772 57.793795 49.683866
Cu 49.803836 59.773142 48.341233
Cu 52.223307 59.011143 48.025820
Cu 51.518594 60.162443 50.196501
Cu 53.938065 59.400443 49.881088
Cu 53.036129 61.379791 48.538455
Cu 55.455600 60.617792 48.223042
Cu 54.750887 61.769092 50.393723
Cu 57.170358 61.007092 50.078310
Cu 49.099123 60.924442 50.511914
Cu 52.331416 62.531091 50.709136
Cu 54.910118 45.205157 50.200401
Cu 56.427654 46.422505 48.542355
Cu 58.142411 46.811806 50.397623
Cu 59.659947 48.029154 48.739577
Cu 61.374704 48.418455 50.594845
Cu 50.071176 46.729155 50.831227
Cu 52.490647 45.967156 50.515814
Cu 51.588712 47.946504 49.173181
Cu 54.008183 47.184505 48.857768
Cu 53.303469 48.335804 51.028449
Cu 55.722940 47.573805 50.713036
Cu 54.821005 49.553153 49.370403
Cu 57.240476 48.791153 49.054990
Cu 56.535762 49.942453 51.225671
Cu 58.955233 49.180454 50.910258
Cu 58.053298 51.159802 49.567625
Cu 60.472769 50.397802 49.252212
Cu 59.768055 51.549102 51.422893
Cu 62.187526 50.787103 51.107480
Cu 61.285591 52.766450 49.764847
Cu 63.000349 53.155751 51.620115
Cu 47.651705 47.491155 51.146640
Cu 46.749770 49.470502 49.804007
Cu 49.169241 48.708503 49.488594
Cu 48.464527 49.859803 51.659275
Cu 50.883998 49.097803 51.343862
Cu 49.982063 51.077151 50.001229
Cu 52.401534 50.315152 49.685816
Cu 51.696820 51.466451 51.856497
Cu 54.116291 50.704452 51.541084
Cu 53.214356 52.683800 50.198451
Cu 55.633827 51.921801 49.883038
Cu 54.929113 53.073100 52.053719
Cu 57.348584 52.311101 51.738306
Cu 56.446649 54.290449 50.395673
Cu 58.866120 53.528450 50.080260
Cu 58.161407 54.679749 52.250941
Cu 60.580878 53.917750 51.935528
Cu 59.678942 55.897098 50.592895
Cu 62.098413 55.135098 50.277482
Cu 61.393700 56.286398 52.448163
Cu 63.813171 55.524399 52.132750
Cu 62.911235 57.503747 50.790117
Cu 46.045056 50.621802 51.974688
Cu 45.143121 52.601149 50.632055
Cu 47.562592 51.839150 50.316642
Cu 46.857878 52.990450 52.487323
Cu 49.277349 52.228451 52.171910
Cu 48.375414 54.207798 50.829277
Cu 50.794885 53.445799 50.513864
Cu 50.090171 54.597099 52.684545
Cu 52.509642 53.835099 52.369132
Cu 51.607707 55.814447 51.026499
Cu 54.027178 55.052448 50.711086
Cu 53.322465 56.203748 52.881767
Cu 55.741936 55.441748 52.566354
Cu 54.840000 57.421096 51.223721
Cu 57.259471 56.659097 50.908308
Cu 56.554758 57.810396 53.078989
Cu 58.974229 57.048397 52.763576
Cu 58.072293 59.027745 51.420943
Cu 60.491764 58.265746 51.105530
Cu 59.787051 59.417045 53.276211
Cu 62.206522 58.655046 52.960798
Cu 61.304586 60.634394 51.618165
Cu 44.438407 53.752449 52.802736
Cu 45.955943 54.969797 51.144690
Cu 45.251229 56.121097 53.315371
Cu 47.670700 55.359098 52.999958
Cu 46.768765 57.338445 51.657325
Cu 49.188236 56.576446 51.341912
Cu 48.483523 57.727746 53.512593
Cu 50.902994 56.965747 53.197180
Cu 50.001058 58.945094 51.854547
Cu 52.420529 58.183095 51.539134
Cu 51.715816 59.334395 53.709815
Cu 54.135287 58.572396 53.394402
Cu 53.233351 60.551743 52.051769
Cu 55.652822 59.789744 51.736356
Cu 54.948109 60.941044 53.907037
Cu 57.367580 60.179044 53.591624
Cu 56.465644 62.158392 52.248991
Cu 58.885115 61.396393 51.933578
Cu 58.180402 62.547693 54.104259
Cu 60.599873 61.785693 53.788846
Cu 46.064052 58.489745 53.828006
Cu 47.581587 59.707093 52.169960
Cu 46.876874 60.858393 54.340641
Cu 49.296345 60.096394 54.025228
Cu 48.394409 62.075741 52.682595
Cu 50.813880 61.313742 52.367182
Cu 50.109167 62.465042 54.537863
Cu 52.528638 61.703043 54.222450
Cu 51.626702 63.682390 52.879817
Cu 54.046173 62.920391 52.564404
Cu 53.341460 64.071691 54.735085
Cu 55.760931 63.309692 54.419672
Cu 55.107340 44.377109 53.713715
Cu 56.624876 45.594458 52.055669
Cu 58.339633 45.983758 53.910937
Cu 59.857169 47.201106 52.252891
Cu 61.571926 47.590407 54.108159
Cu 50.268398 45.901107 54.344541
Cu 52.687869 45.139108 54.029128
Cu 51.785934 47.118456 52.686495
Cu 54.205405 46.356457 52.371082
Cu 53.500691 47.507756 54.541763
Cu 55.920162 46.745757 54.226350
Cu 55.018227 48.725105 52.883717
Cu 57.437698 47.963106 52.568304
Cu 56.732984 49.114405 54.738985
Cu 59.152455 48.352406 54.423572
Cu 58.250520 50.331754 53.080939
Cu 60.669991 49.569755 52.765526
Cu 59.965277 50.721054 54.936207
Cu 62.384748 49.959055 54.620794
Cu 61.482813 51.938403 53.278161
Cu 63.197571 52.327703 55.133429
Cu 47.848927 46.663107 54.659954
Cu 46.946992 48.642454 53.317321
Cu 49.366463 47.880455 53.001908
Cu 48.661749 49.031755 55.172589
Cu 51.081220 48.269756 54.857176
Cu 50.179285 50.249103 53.514543
Cu 52.598756 49.487104 53.199130
Cu 51.894042 50.638404 55.369811
Cu 54.313513 49.876404 55.054398
Cu 53.411578 51.855752 53.711765
Cu 55.831049 51.093753 53.396352
Cu 55.126335 52.245052 55.567033
Cu 57.545806 51.483053 55.251620
Cu 56.643871 53.462401 53.908987
Cu 59.063342 52.700402 53.593574
Cu 58.358629 53.851701 55.764255
Cu 60.778100 53.089702 55.448842
Cu 59.876164 55.069050 54.106209
Cu 62.295635 54.307051 53.790796
Cu 61.590922 55.458350 55.961477
Cu 64.010393 54.696351 55.646064
Cu 63.108457 56.675699 54.303431
Cu 46.242278 49.793754 55.488002
Cu 45.340343 51.773101 54.145369
Cu 47.759814 51.011102 53.829956
Cu 47.055100 52.162402 56.000637
Cu 49.474571 51.400403 55.685224
Cu 48.572636 53.379750 54.342591
Cu 50.992107 52.617751 54.027178
Cu 50.287393 53.769051 56.197859
Cu 52.706864 53.007052 55.882446
Cu 51.804929 54.986399 54.539813
Cu 54.224400 54.224400 54.224400
Cu 53.519687 55.375700 56.395081
Cu 55.939158 54.613701 56.079668
Cu 55.037222 56.593048 54.737035
Cu 57.456693 55.831049 54.421622
Cu 56.751980 56.982349 56.592303
Cu 59.171451 56.220349 56.276890
Cu 58.269515 58.199697 54.934257
Cu 60.688986 57.437698 54.618844
Cu 59.984273 58.588997 56.789525
Cu 62.403744 57.826998 56.474112
Cu 61.501808 59.806346 55.131479
Cu 44.635629 52.924401 56.316050
Cu 46.153165 54.141749 54.658004
Cu 45.448451 55.293049 56.828685
Cu 47.867922 54.531050 56.513272
Cu 46.965987 56.510397 55.170639
Cu 49.385458 55.748398 54.855226
Cu 48.680745 56.899698 57.025907
Cu 51.100216 56.137699 56.710494
Cu 50.198280 58.117046 55.367861
Cu 52.617751 57.355047 55.052448
Cu 51.913038 58.506347 57.223129
Cu 54.332509 57.744348 56.907716
Cu 53.430573 59.723695 55.565083
Cu 55.850044 58.961696 55.249670
Cu 55.145331 60.112996 57.420351
Cu 57.564802 59.350997 57.104938
Cu 56.662866 61.330344 55.762305
Cu 59.082337 60.568345 55.446892
Cu 58.377624 61.719645 57.617573
Cu 60.797095 60.957645 57.302160
Cu 46.261274 57.661697 57.341320
Cu 47.778809 58.879045 55.683274
Cu 47.074096 60.030345 57.853955
Cu 49.493567 59.268346 57.538542
Cu 48.591631 61.247694 56.195909
Cu 51.011102 60.485694 55.880496
Cu 50.306389 61.636994 58.051177
Cu 52.725860 60.874995 57.735764
Cu 51.823924 62.854342 56.393131
Cu 54.243395 62.092343 56.077718
Cu 53.538682 63.243643 58.248399
Cu 55.958153 62.481644 57.932986
Cu 56.822098 44.766410 55.568983
Cu 60.054391 46.373059 55.766205
Cu 51.983156 46.290408 56.199809
Cu 54.402627 45.528409 55.884396
Cu 53.697913 46.679708 58.055077
Cu 56.117384 45.917709 57.739664
Cu 55.215449 47.897057 56.397031
Cu 57.634920 47.135058 56.081618
Cu 56.930206 48.286357 58.252299
Cu 59.349677 47.524358 57.936886
Cu 58.447742 49.503706 56.594253
Cu 60.867213 48.741707 56.278840
Cu 60.162499 49.893006 58.449521
Cu 61.680035 51.110355 56.791475
Cu 47.144214 47.814406 56.830635
Cu 49.563685 47.052407 56.515222
Cu 48.858971 48.203707 58.685903
Cu 51.278442 47.441708 58.370490
Cu 50.376507 49.421055 57.027857
Cu 52.795978 48.659056 56.712444
Cu 52.091264 49.810356 58.883125
Cu 54.510735 49.048357 58.567712
Cu 53.608800 51.027704 57.225079
Cu 56.028271 50.265705 56.909666
Cu 55.323557 51.417005 59.080347
Cu 57.743028 50.655005 58.764934
Cu 56.841093 52.634353 57.422301
Cu 59.260564 51.872354 57.106888
Cu 58.555851 53.023653 59.277569
Cu 60.975322 52.261654 58.962156
Cu 60.073386 54.241002 57.619523
Cu 62.492857 53.479003 57.304110
Cu 61.788144 54.630302 59.474791
Cu 63.305679 55.847651 57.816745
Cu 45.537565 50.945053 57.658683
Cu 47.957036 50.183054 57.343270
Cu 47.252322 51.334354 59.513951
Cu 49.671793 50.572355 59.198538
Cu 48.769858 52.551702 57.855905
Cu 51.189329 51.789703 57.540492
Cu 50.484615 52.941003 59.711173
Cu 52.904086 52.179004 59.395760
Cu 52.002151 54.158351 58.053127
Cu 54.421622 53.396352 57.737714
Cu 53.716909 54.547652 59.908395
Cu 56.136380 53.785653 59.592982
Cu 55.234444 55.765000 58.250349
Cu 57.653915 55.003001 57.934936
Cu 56.949202 56.154301 60.105617
Cu 59.368673 55.392302 59.790204
Cu 58.466737 57.371649 58.447571
Cu 60.886208 56.609650 58.132158
Cu 60.181495 57.760950 60.302839
Cu 61.699030 58.978298 58.644793
Cu 46.350387 53.313702 58.171318
Cu 48.065144 53.703002 60.026586
Cu 47.163209 55.682350 58.683953
Cu 49.582680 54.920350 58.368540
Cu 48.877967 56.071650 60.539221
Cu 51.297438 55.309651 60.223808
Cu 50.395502 57.288998 58.881175
Cu 52.814973 56.526999 58.565762
Cu 52.110260 57.678299 60.736443
Cu 54.529731 56.916300 60.421030
Cu 53.627795 58.895647 59.078397
Cu 56.047266 58.133648 58.762984
Cu 55.342553 59.284948 60.933665
Cu 57.762024 58.522949 60.618252
Cu 56.860088 60.502296 59.275619
Cu 59.279559 59.740297 58.960206
Cu 47.976031 58.050998 59.196588
Cu 49.690789 58.440298 61.051856
Cu 48.788853 60.419646 59.709223
Cu 51.208324 59.657647 59.393810
Cu 52.923082 60.046947 61.249078
Cu 52.021146 62.026295 59.906445
Cu 54.440617 61.264295 59.591032
Cu 55.412671 47.069009 59.910345
Cu 58.644964 48.675658 60.107567
Cu 50.573729 48.593007 60.541171
Cu 52.993200 47.831008 60.225758
Cu 52.288486 48.982308 62.396439
Cu 54.707957 48.220309 62.081026
Cu 53.806022 50.199656 60.738393
Cu 56.225493 49.437657 60.422980
Cu 55.520779 50.588957 62.593661
Cu 57.940250 49.826958 62.278248
Cu 57.038315 51.806305 60.935615
Cu 59.457786 51.044306 60.620202
Cu 58.753073 52.195606 62.790883
Cu 60.270608 53.412954 61.132837
Cu 48.967080 51.723654 61.369219
Cu 51.386551 50.961655 61.053806
Cu 50.681837 52.112955 63.224487
Cu 53.101308 51.350956 62.909074
Cu 52.199373 53.330303 61.566441
Cu 54.618844 52.568304 61.251028
Cu 53.914131 53.719604 63.421709
Cu 56.333602 52.957605 63.106296
Cu 55.431666 54.936952 61.763663
Cu 57.851137 54.174953 61.448250
Cu 57.146424 55.326253 63.618931
Cu 58.663959 56.543601 61.960885
Cu 49.779902 54.092303 61.881854
Cu 51.494660 54.481603 63.737122
Cu 50.592724 56.460951 62.394489
Cu 53.012195 55.698951 62.079076
Cu 54.726953 56.088252 63.934344
Cu 53.825017 58.067599 62.591711
Cu 56.244488 57.305600 62.276298
