177
Generated rotated structure
Cu 57.462082 48.098024 50.939489
Cu 53.114172 50.012438 49.050954
Cu 55.288127 49.055231 49.995221
Cu 55.296384 50.266523 47.744294
Cu 56.391112 51.351441 49.783532
Cu 58.565067 50.394234 50.727800
Cu 58.573324 51.605525 48.476873
Cu 59.668052 52.690444 50.516111
Cu 50.940216 50.969645 48.106686
Cu 52.043201 53.265855 47.894997
Cu 54.217156 52.308648 48.839265
Cu 54.225413 53.519940 46.588338
Cu 56.399369 52.562733 47.532605
Cu 55.320141 54.604858 48.627576
Cu 57.494097 53.647651 49.571843
Cu 57.502353 54.858942 47.320916
Cu 58.597081 55.943861 49.360154
Cu 60.771037 54.986654 50.304422
Cu 53.146186 55.562065 47.683308
Cu 54.249171 57.858275 47.471619
Cu 56.423126 56.901068 48.415887
Cu 53.097658 47.589855 53.552808
Cu 55.271613 46.632648 54.497075
Cu 55.279870 47.843939 52.246148
Cu 56.374598 48.928858 54.285386
Cu 58.548553 47.971651 55.229654
Cu 58.556810 49.182942 52.978727
Cu 59.651538 50.267860 55.017965
Cu 48.749747 49.504269 51.664273
Cu 50.923703 48.547062 52.608540
Cu 50.931960 49.758353 50.357613
Cu 53.105915 48.801146 51.301881
Cu 52.026687 50.843272 52.396851
Cu 54.200643 49.886065 53.341119
Cu 54.208900 51.097356 51.090192
Cu 56.382855 50.140149 52.034459
Cu 55.303627 52.182275 53.129430
Cu 57.477583 51.225068 54.073697
Cu 57.485840 52.436359 51.822770
Cu 59.659795 51.479152 52.767038
Cu 58.580567 53.521278 53.862008
Cu 60.754523 52.564070 54.806276
Cu 60.762780 53.775362 52.555349
Cu 61.857507 54.860280 54.594586
Cu 47.678777 52.757686 50.508316
Cu 49.852732 51.800479 51.452584
Cu 49.860989 53.011770 49.201657
Cu 52.034944 52.054563 50.145924
Cu 50.955717 54.096689 51.240895
Cu 53.129672 53.139482 52.185162
Cu 53.137929 54.350773 49.934235
Cu 55.311884 53.393566 50.878503
Cu 54.232657 55.435692 51.973473
Cu 56.406612 54.478485 52.917741
Cu 56.414869 55.689776 50.666814
Cu 58.588824 54.732569 51.611081
Cu 57.509597 56.774695 52.706051
Cu 59.683552 55.817487 53.650319
Cu 59.691809 57.028779 51.399392
Cu 60.786537 58.113697 53.438630
Cu 48.781762 55.053896 50.296627
Cu 50.963974 55.307980 48.989968
Cu 49.884746 57.350106 50.084938
Cu 52.058702 56.392899 51.029205
Cu 52.066959 57.604190 48.778279
Cu 54.240914 56.646983 49.722546
Cu 53.161686 58.689109 50.817516
Cu 55.335642 57.731902 51.761784
Cu 55.343899 58.943193 49.510857
Cu 57.517854 57.985986 50.455124
Cu 56.438627 60.028112 51.550095
Cu 58.612582 59.070904 52.494362
Cu 50.987731 59.646316 49.873249
Cu 54.264671 60.985319 50.605827
Cu 50.915446 47.335770 54.859467
Cu 52.010173 48.420688 56.898705
Cu 54.184129 47.463481 57.842973
Cu 54.192386 48.674773 55.592046
Cu 56.366341 47.717566 56.536313
Cu 55.287114 49.759691 57.631284
Cu 57.461069 48.802484 58.575551
Cu 57.469326 50.013776 56.324624
Cu 58.564054 51.098694 58.363862
Cu 60.746266 51.352779 57.057203
Cu 47.662263 50.335103 55.010170
Cu 49.836218 49.377896 55.954438
Cu 49.844475 50.589187 53.703511
Cu 52.018430 49.631980 54.647778
Cu 50.939203 51.674105 55.742749
Cu 53.113158 50.716898 56.687016
Cu 53.121415 51.928190 54.436089
Cu 55.295370 50.970983 55.380357
Cu 54.216143 53.013108 56.475327
Cu 56.390098 52.055901 57.419595
Cu 56.398355 53.267193 55.168668
Cu 58.572310 52.309986 56.112935
Cu 57.493083 54.352111 57.207905
Cu 59.667038 53.394904 58.152173
Cu 59.675295 54.606196 55.901246
Cu 60.770023 55.691114 57.940484
Cu 47.670520 51.546394 52.759243
Cu 46.591293 53.588520 53.854214
Cu 48.765248 52.631313 54.798481
Cu 48.773505 53.842604 52.547554
Cu 50.947460 52.885397 53.491822
Cu 49.868233 54.927522 54.586792
Cu 52.042188 53.970315 55.531059
Cu 52.050445 55.181607 53.280132
Cu 54.224400 54.224400 54.224400
Cu 53.145173 56.266525 55.319370
Cu 55.319128 55.309318 56.263638
Cu 55.327385 56.520610 54.012711
Cu 57.501340 55.563403 54.956978
Cu 56.422113 57.605528 56.051949
Cu 58.596068 56.648321 56.996216
Cu 58.604325 57.859613 54.745289
Cu 60.778280 56.902406 55.689557
Cu 59.699053 58.944531 56.784527
Cu 47.694277 55.884730 53.642524
Cu 47.702534 57.096021 51.391597
Cu 49.876490 56.138814 52.335865
Cu 48.797262 58.180940 53.430835
Cu 50.971217 57.223732 54.375103
Cu 50.979474 58.435024 52.124176
Cu 53.153430 57.477817 53.068443
Cu 52.074202 59.519942 54.163414
Cu 54.248157 58.562735 55.107681
Cu 54.256414 59.774027 52.856754
Cu 56.430370 58.816820 53.801022
Cu 55.351142 60.858945 54.895992
Cu 57.525097 59.901738 55.840260
Cu 57.533354 61.113030 53.589333
Cu 49.900247 60.477149 53.219146
Cu 52.082459 60.731234 51.912487
Cu 53.177187 61.816152 53.951725
Cu 53.104901 49.505607 58.937943
Cu 54.199629 50.590525 60.977181
Cu 56.381841 50.844610 59.670521
Cu 48.756991 51.420021 57.049408
Cu 50.930946 50.462814 57.993676
Cu 49.851719 52.504939 59.088646
Cu 52.025674 51.547732 60.032913
Cu 52.033931 52.759024 57.781986
Cu 54.207886 51.801817 58.726254
Cu 53.128659 53.843942 59.821224
Cu 55.302614 52.886735 60.765492
Cu 55.310871 54.098027 58.514565
Cu 57.484826 53.140820 59.458832
Cu 56.405599 55.182945 60.553803
Cu 58.587811 55.437030 59.247143
Cu 47.677763 53.462146 58.144378
Cu 47.686020 54.673438 55.893451
Cu 49.859976 53.716231 56.837719
Cu 48.780748 55.758356 57.932689
Cu 50.954703 54.801149 58.876957
Cu 50.962960 56.012441 56.626030
Cu 53.136916 55.055234 57.570297
Cu 52.057688 57.097359 58.665268
Cu 54.231644 56.140152 59.609535
Cu 54.239900 57.351444 57.358608
Cu 56.413856 56.394237 58.302876
Cu 55.334628 58.436362 59.397846
Cu 57.508584 57.479155 60.342114
Cu 57.516840 58.690447 58.091187
Cu 48.789005 56.969648 55.681762
Cu 49.883733 58.054566 57.721000
Cu 49.891990 59.265858 55.470073
Cu 52.065945 58.308651 56.414341
Cu 50.986718 60.350776 57.509311
Cu 53.160673 59.393569 58.453579
Cu 53.168930 60.604861 56.202652
Cu 55.342885 59.647654 57.146919
Cu 50.946447 53.589858 61.127884
Cu 54.223387 54.928860 61.860462
Cu 49.875476 56.843275 59.971927
Cu 52.049431 55.886067 60.916195
Cu 53.152416 58.182277 60.704506
