249
Generated rotated structure
Cu 50.276492 46.919683 52.513034
Cu 53.876758 46.836614 52.198204
Cu 57.477024 46.753545 51.883374
Cu 48.434824 48.533888 51.780525
Cu 50.077542 47.602428 50.057786
Cu 50.193423 50.065024 50.733185
Cu 52.035090 48.450819 51.465694
Cu 51.836141 49.133564 49.010446
Cu 53.677808 47.519359 49.742956
Cu 53.793689 49.981955 50.418354
Cu 55.635357 48.367750 51.150864
Cu 55.436407 49.050495 48.695615
Cu 57.278074 47.436290 49.428125
Cu 57.393955 49.898886 50.103524
Cu 59.235623 48.284681 50.836034
Cu 48.351755 51.679229 50.000675
Cu 49.994473 50.747769 48.277936
Cu 50.110354 53.210365 48.953335
Cu 51.952021 51.596160 49.685844
Cu 51.753072 52.278905 47.230596
Cu 53.594739 50.664700 47.963106
Cu 53.710620 53.127296 48.638504
Cu 55.552288 51.513091 49.371014
Cu 55.353338 52.195836 46.915765
Cu 57.195005 50.581631 47.648275
Cu 57.310886 53.044227 48.323674
Cu 59.152554 51.430022 49.056184
Cu 48.268686 54.824570 48.220825
Cu 49.911404 53.893110 46.498086
Cu 50.027285 56.355706 47.173485
Cu 51.868952 54.741501 47.905994
Cu 53.511670 53.810041 46.183256
Cu 53.627551 56.272636 46.858654
Cu 55.469219 54.658432 47.591164
Cu 57.111936 53.726972 45.868425
Cu 57.227817 56.189567 46.543824
Cu 59.069485 54.575363 47.276334
Cu 48.633774 47.851142 54.235773
Cu 50.475441 46.236937 54.968283
Cu 50.591322 48.699533 55.643682
Cu 52.432990 47.085328 56.376191
Cu 52.234040 47.768073 53.920943
Cu 54.075708 46.153868 54.653453
Cu 54.191588 48.616464 55.328851
Cu 56.033256 47.002259 56.061361
Cu 55.834306 47.685004 53.606113
Cu 57.675974 46.070799 54.338622
Cu 57.791855 48.533395 55.014021
Cu 59.434573 47.601935 53.291282
Cu 46.792106 49.465347 53.503264
Cu 46.907987 51.927943 54.178662
Cu 48.749654 50.313738 54.911172
Cu 48.550705 50.996483 52.455923
Cu 50.392372 49.382278 53.188433
Cu 50.508253 51.844874 53.863832
Cu 52.349921 50.230669 54.596342
Cu 52.150971 50.913414 52.141093
Cu 53.992639 49.299209 52.873603
Cu 54.108519 51.761805 53.549001
Cu 55.950187 50.147600 54.281511
Cu 55.751237 50.830345 51.826263
Cu 57.592905 49.216140 52.558772
Cu 57.708786 51.678736 53.234171
Cu 59.550453 50.064531 53.966681
Cu 59.351504 50.747276 51.511432
Cu 61.193171 49.133071 52.243942
Cu 61.309052 51.595667 52.919341
Cu 46.709037 52.610688 51.723414
Cu 46.824918 55.073284 52.398812
Cu 48.666585 53.459079 53.131322
Cu 48.467636 54.141824 50.676073
Cu 50.309303 52.527619 51.408583
Cu 50.425184 54.990215 52.083982
Cu 52.266852 53.376010 52.816492
Cu 52.067902 54.058755 50.361243
Cu 53.909570 52.444550 51.093753
Cu 54.025450 54.907145 51.769151
Cu 55.867118 53.292941 52.501661
Cu 55.668168 53.975686 50.046413
Cu 57.509836 52.361481 50.778922
Cu 57.625717 54.824076 51.454321
Cu 59.467384 53.209872 52.186831
Cu 59.268435 53.892617 49.731582
Cu 61.110102 52.278412 50.464092
Cu 61.225983 54.741007 51.139491
Cu 46.625968 55.756029 49.943564
Cu 48.583516 56.604419 51.351472
Cu 48.384567 57.287165 48.896223
Cu 50.226234 55.672960 49.628733
Cu 50.342115 58.135555 50.304132
Cu 52.183783 56.521350 51.036642
Cu 51.984833 57.204096 48.581393
Cu 53.826501 55.589891 49.313903
Cu 53.942381 58.052486 49.989302
Cu 55.784049 56.438281 50.721811
Cu 55.585099 57.121027 48.266563
Cu 57.426767 55.506822 48.999072
Cu 57.542648 57.969417 49.674471
Cu 59.384315 56.355212 50.406981
Cu 59.185366 57.037958 47.951732
Cu 61.027033 55.423753 48.684242
Cu 50.143165 58.818301 47.848883
Cu 52.100714 59.666691 49.256792
Cu 53.743432 58.735232 47.534053
Cu 55.700980 59.583622 48.941961
Cu 57.343698 58.652163 47.219223
Cu 48.948604 49.630992 57.366420
Cu 50.790272 48.016787 58.098930
Cu 50.906152 50.479383 58.774329
Cu 52.747820 48.865178 59.506839
Cu 52.548870 49.547923 57.051590
Cu 54.390538 47.933718 57.784100
Cu 54.506419 50.396314 58.459498
Cu 56.348086 48.782109 59.192008
Cu 56.149137 49.464854 56.736760
Cu 57.990804 47.850649 57.469269
Cu 58.106685 50.313245 58.144668
Cu 59.749403 49.381785 56.421929
Cu 47.106936 51.245197 56.633911
Cu 47.222817 53.707793 57.309309
Cu 49.064485 52.093588 58.041819
Cu 48.865535 52.776333 55.586571
Cu 50.707203 51.162128 56.319080
Cu 50.823083 53.624724 56.994479
Cu 52.664751 52.010519 57.726989
Cu 52.465801 52.693264 55.271740
Cu 54.307469 51.079059 56.004250
Cu 54.423350 53.541655 56.679649
Cu 56.265017 51.927450 57.412158
Cu 56.066068 52.610195 54.956910
Cu 57.907735 50.995990 55.689420
Cu 58.023616 53.458585 56.364818
Cu 59.865284 51.844381 57.097328
Cu 59.666334 52.527126 54.642079
Cu 61.508002 50.912921 55.374589
Cu 61.623882 53.375516 56.049988
Cu 47.023867 54.390538 54.854061
Cu 47.139748 56.853133 55.529459
Cu 48.981416 55.238928 56.261969
Cu 48.782466 55.921674 53.806721
Cu 50.624134 54.307469 54.539230
Cu 50.740014 56.770064 55.214629
Cu 52.581682 55.155859 55.947139
Cu 52.382732 55.838605 53.491890
Cu 54.224400 54.224400 54.224400
Cu 54.340281 56.686995 54.899799
Cu 56.181948 55.072790 55.632308
Cu 55.982999 55.755536 53.177060
Cu 57.824666 54.141331 53.909570
Cu 57.940547 56.603926 54.584968
Cu 59.782215 54.989721 55.317478
Cu 59.583265 55.672467 52.862229
Cu 61.424933 54.058262 53.594739
Cu 61.540813 56.520857 54.270138
Cu 46.940798 57.535879 53.074211
Cu 48.898347 58.384269 54.482119
Cu 48.699397 59.067015 52.026871
Cu 50.541065 57.452810 52.759380
Cu 50.656945 59.915405 53.434779
Cu 52.498613 58.301200 54.167289
Cu 52.299663 58.983946 51.712040
Cu 54.141331 57.369741 52.444550
Cu 54.257212 59.832336 53.119949
Cu 56.098879 58.218131 53.852458
Cu 55.899930 58.900877 51.397210
Cu 57.741597 57.286672 52.129720
Cu 57.857478 59.749267 52.805118
Cu 59.699146 58.135062 53.537628
Cu 59.500196 58.817808 51.082380
Cu 61.341864 57.203603 51.814889
Cu 50.457996 60.598151 50.979531
Cu 52.415544 61.446541 52.387439
Cu 54.058262 60.515082 50.664700
Cu 56.015810 61.363472 52.072609
Cu 57.658528 60.432013 50.349870
Cu 49.263434 51.410842 60.497068
Cu 51.105102 49.796637 61.229577
Cu 51.220983 52.259233 61.904976
Cu 52.863701 51.327773 60.182237
Cu 54.705368 49.713568 60.914747
Cu 54.821249 52.176164 61.590146
Cu 56.463967 51.244704 59.867407
Cu 58.305635 49.630499 60.599917
Cu 58.421515 52.093094 61.275315
Cu 60.064233 51.161635 59.552577
Cu 47.421767 53.025047 59.764558
Cu 49.379315 53.873437 61.172466
Cu 49.180365 54.556183 58.717218
Cu 51.022033 52.941978 59.449728
Cu 51.137914 55.404573 60.125126
Cu 52.979581 53.790368 60.857636
Cu 52.780632 54.473114 58.402387
Cu 54.622299 52.858909 59.134897
Cu 54.738180 55.321504 59.810296
Cu 56.579848 53.707299 60.542806
Cu 56.380898 54.390045 58.087557
Cu 58.222566 52.775840 58.820067
Cu 58.338446 55.238435 59.495465
Cu 60.180114 53.624230 60.227975
Cu 59.981164 54.306976 57.772727
Cu 61.822832 52.692771 58.505236
Cu 47.338698 56.170388 57.984708
Cu 49.296246 57.018778 59.392616
Cu 49.097296 57.701524 56.937368
Cu 50.938964 56.087319 57.669878
Cu 51.054845 58.549914 58.345276
Cu 52.896512 56.935709 59.077786
Cu 52.697563 57.618455 56.622537
Cu 54.539230 56.004250 57.355047
Cu 54.655111 58.466845 58.030446
Cu 56.496779 56.852640 58.762956
Cu 56.297829 57.535386 56.307707
Cu 58.139497 55.921181 57.040217
Cu 58.255377 58.383776 57.715615
Cu 60.097045 56.769571 58.448125
Cu 59.898095 57.452317 55.992877
Cu 61.739763 55.838112 56.725386
Cu 47.255629 59.315729 56.204858
Cu 49.213177 60.164119 57.612766
Cu 49.014227 60.846865 55.157518
Cu 50.855895 59.232660 55.890028
Cu 50.971776 61.695255 56.565426
Cu 52.813443 60.081050 57.297936
Cu 52.614494 60.763796 54.842687
Cu 54.456161 59.149591 55.575197
Cu 54.572042 61.612186 56.250596
Cu 56.413710 59.997981 56.983106
Cu 56.214760 60.680727 54.527857
Cu 58.056428 59.066522 55.260367
Cu 58.172308 61.529117 55.935766
Cu 60.013976 59.914912 56.668275
Cu 59.815026 60.597658 54.213027
Cu 61.656694 58.983453 54.945536
Cu 50.772826 62.378001 54.110178
Cu 54.373092 62.294932 53.795347
Cu 57.973359 62.211863 53.480517
Cu 51.336864 54.721828 62.580375
Cu 53.095462 56.252964 61.533035
Cu 54.937130 54.638759 62.265544
Cu 56.695728 56.169895 61.218204
Cu 58.537396 54.555690 61.950714
Cu 51.253795 57.867169 60.800525
Cu 53.012393 59.398305 59.753185
Cu 54.854061 57.784100 60.485694
Cu 56.612659 59.315236 59.438354
Cu 58.454327 57.701031 60.170864
Cu 51.170726 61.012510 59.020675
Cu 54.770992 60.929441 58.705844
Cu 58.371258 60.846372 58.391014
