249
Generated rotated structure
Cu 53.106247 49.163852 47.515135
Cu 56.338540 50.770501 47.712357
Cu 59.570833 52.377150 47.909579
Cu 50.686776 49.925851 47.830548
Cu 52.204312 51.143200 46.172502
Cu 51.499598 52.294499 48.343183
Cu 53.919069 51.532500 48.027770
Cu 53.017134 53.511848 46.685137
Cu 55.436605 52.749849 46.369724
Cu 54.731891 53.901148 48.540405
Cu 57.151362 53.139149 48.224992
Cu 56.249427 55.118497 46.882359
Cu 58.668898 54.356497 46.566946
Cu 57.964185 55.507797 48.737627
Cu 60.383656 54.745798 48.422214
Cu 49.080127 53.056498 48.658596
Cu 50.597663 54.273847 47.000550
Cu 49.892949 55.425147 49.171231
Cu 52.312420 54.663147 48.855818
Cu 51.410485 56.642495 47.513185
Cu 53.829956 55.880496 47.197772
Cu 53.125243 57.031795 49.368453
Cu 55.544714 56.269796 49.053040
Cu 54.642778 58.249144 47.710407
Cu 57.062249 57.487145 47.394994
Cu 56.357536 58.638444 49.565675
Cu 58.777007 57.876445 49.250262
Cu 47.473478 56.187146 49.486644
Cu 48.991014 57.404494 47.828598
Cu 48.286301 58.555794 49.999279
Cu 50.705772 57.793795 49.683866
Cu 52.223307 59.011143 48.025820
Cu 51.518594 60.162443 50.196501
Cu 53.938065 59.400443 49.881088
Cu 55.455600 60.617792 48.223042
Cu 54.750887 61.769092 50.393723
Cu 57.170358 61.007092 50.078310
Cu 51.588712 47.946504 49.173181
Cu 54.008183 47.184505 48.857768
Cu 53.303469 48.335804 51.028449
Cu 55.722940 47.573805 50.713036
Cu 54.821005 49.553153 49.370403
Cu 57.240476 48.791153 49.054990
Cu 56.535762 49.942453 51.225671
Cu 58.955233 49.180454 50.910258
Cu 58.053298 51.159802 49.567625
Cu 60.472769 50.397802 49.252212
Cu 59.768055 51.549102 51.422893
Cu 61.285591 52.766450 49.764847
Cu 49.169241 48.708503 49.488594
Cu 48.464527 49.859803 51.659275
Cu 50.883998 49.097803 51.343862
Cu 49.982063 51.077151 50.001229
Cu 52.401534 50.315152 49.685816
Cu 51.696820 51.466451 51.856497
Cu 54.116291 50.704452 51.541084
Cu 53.214356 52.683800 50.198451
Cu 55.633827 51.921801 49.883038
Cu 54.929113 53.073100 52.053719
Cu 57.348584 52.311101 51.738306
Cu 56.446649 54.290449 50.395673
Cu 58.866120 53.528450 50.080260
Cu 58.161407 54.679749 52.250941
Cu 60.580878 53.917750 51.935528
Cu 59.678942 55.897098 50.592895
Cu 62.098413 55.135098 50.277482
Cu 61.393700 56.286398 52.448163
Cu 47.562592 51.839150 50.316642
Cu 46.857878 52.990450 52.487323
Cu 49.277349 52.228451 52.171910
Cu 48.375414 54.207798 50.829277
Cu 50.794885 53.445799 50.513864
Cu 50.090171 54.597099 52.684545
Cu 52.509642 53.835099 52.369132
Cu 51.607707 55.814447 51.026499
Cu 54.027178 55.052448 50.711086
Cu 53.322465 56.203748 52.881767
Cu 55.741936 55.441748 52.566354
Cu 54.840000 57.421096 51.223721
Cu 57.259471 56.659097 50.908308
Cu 56.554758 57.810396 53.078989
Cu 58.974229 57.048397 52.763576
Cu 58.072293 59.027745 51.420943
Cu 60.491764 58.265746 51.105530
Cu 59.787051 59.417045 53.276211
Cu 45.955943 54.969797 51.144690
Cu 47.670700 55.359098 52.999958
Cu 46.768765 57.338445 51.657325
Cu 49.188236 56.576446 51.341912
Cu 48.483523 57.727746 53.512593
Cu 50.902994 56.965747 53.197180
Cu 50.001058 58.945094 51.854547
Cu 52.420529 58.183095 51.539134
Cu 51.715816 59.334395 53.709815
Cu 54.135287 58.572396 53.394402
Cu 53.233351 60.551743 52.051769
Cu 55.652822 59.789744 51.736356
Cu 54.948109 60.941044 53.907037
Cu 57.367580 60.179044 53.591624
Cu 56.465644 62.158392 52.248991
Cu 58.885115 61.396393 51.933578
Cu 47.581587 59.707093 52.169960
Cu 49.296345 60.096394 54.025228
Cu 50.813880 61.313742 52.367182
Cu 52.528638 61.703043 54.222450
Cu 54.046173 62.920391 52.564404
Cu 51.785934 47.118456 52.686495
Cu 54.205405 46.356457 52.371082
Cu 53.500691 47.507756 54.541763
Cu 55.920162 46.745757 54.226350
Cu 55.018227 48.725105 52.883717
Cu 57.437698 47.963106 52.568304
Cu 56.732984 49.114405 54.738985
Cu 59.152455 48.352406 54.423572
Cu 58.250520 50.331754 53.080939
Cu 60.669991 49.569755 52.765526
Cu 59.965277 50.721054 54.936207
Cu 61.482813 51.938403 53.278161
Cu 49.366463 47.880455 53.001908
Cu 48.661749 49.031755 55.172589
Cu 51.081220 48.269756 54.857176
Cu 50.179285 50.249103 53.514543
Cu 52.598756 49.487104 53.199130
Cu 51.894042 50.638404 55.369811
Cu 54.313513 49.876404 55.054398
Cu 53.411578 51.855752 53.711765
Cu 55.831049 51.093753 53.396352
Cu 55.126335 52.245052 55.567033
Cu 57.545806 51.483053 55.251620
Cu 56.643871 53.462401 53.908987
Cu 59.063342 52.700402 53.593574
Cu 58.358629 53.851701 55.764255
Cu 60.778100 53.089702 55.448842
Cu 59.876164 55.069050 54.106209
Cu 62.295635 54.307051 53.790796
Cu 61.590922 55.458350 55.961477
Cu 47.759814 51.011102 53.829956
Cu 47.055100 52.162402 56.000637
Cu 49.474571 51.400403 55.685224
Cu 48.572636 53.379750 54.342591
Cu 50.992107 52.617751 54.027178
Cu 50.287393 53.769051 56.197859
Cu 52.706864 53.007052 55.882446
Cu 51.804929 54.986399 54.539813
Cu 54.224400 54.224400 54.224400
Cu 53.519687 55.375700 56.395081
Cu 55.939158 54.613701 56.079668
Cu 55.037222 56.593048 54.737035
Cu 57.456693 55.831049 54.421622
Cu 56.751980 56.982349 56.592303
Cu 59.171451 56.220349 56.276890
Cu 58.269515 58.199697 54.934257
Cu 60.688986 57.437698 54.618844
Cu 59.984273 58.588997 56.789525
Cu 46.153165 54.141749 54.658004
Cu 47.867922 54.531050 56.513272
Cu 46.965987 56.510397 55.170639
Cu 49.385458 55.748398 54.855226
Cu 48.680745 56.899698 57.025907
Cu 51.100216 56.137699 56.710494
Cu 50.198280 58.117046 55.367861
Cu 52.617751 57.355047 55.052448
Cu 51.913038 58.506347 57.223129
Cu 54.332509 57.744348 56.907716
Cu 53.430573 59.723695 55.565083
Cu 55.850044 58.961696 55.249670
Cu 55.145331 60.112996 57.420351
Cu 57.564802 59.350997 57.104938
Cu 56.662866 61.330344 55.762305
Cu 59.082337 60.568345 55.446892
Cu 47.778809 58.879045 55.683274
Cu 49.493567 59.268346 57.538542
Cu 51.011102 60.485694 55.880496
Cu 52.725860 60.874995 57.735764
Cu 54.243395 62.092343 56.077718
Cu 51.983156 46.290408 56.199809
Cu 54.402627 45.528409 55.884396
Cu 53.697913 46.679708 58.055077
Cu 55.215449 47.897057 56.397031
Cu 57.634920 47.135058 56.081618
Cu 56.930206 48.286357 58.252299
Cu 58.447742 49.503706 56.594253
Cu 60.867213 48.741707 56.278840
Cu 60.162499 49.893006 58.449521
Cu 61.680035 51.110355 56.791475
Cu 49.563685 47.052407 56.515222
Cu 51.278442 47.441708 58.370490
Cu 50.376507 49.421055 57.027857
Cu 52.795978 48.659056 56.712444
Cu 52.091264 49.810356 58.883125
Cu 54.510735 49.048357 58.567712
Cu 53.608800 51.027704 57.225079
Cu 56.028271 50.265705 56.909666
Cu 55.323557 51.417005 59.080347
Cu 57.743028 50.655005 58.764934
Cu 56.841093 52.634353 57.422301
Cu 59.260564 51.872354 57.106888
Cu 58.555851 53.023653 59.277569
Cu 60.975322 52.261654 58.962156
Cu 60.073386 54.241002 57.619523
Cu 62.492857 53.479003 57.304110
Cu 47.957036 50.183054 57.343270
Cu 49.671793 50.572355 59.198538
Cu 48.769858 52.551702 57.855905
Cu 51.189329 51.789703 57.540492
Cu 50.484615 52.941003 59.711173
Cu 52.904086 52.179004 59.395760
Cu 52.002151 54.158351 58.053127
Cu 54.421622 53.396352 57.737714
Cu 53.716909 54.547652 59.908395
Cu 56.136380 53.785653 59.592982
Cu 55.234444 55.765000 58.250349
Cu 57.653915 55.003001 57.934936
Cu 56.949202 56.154301 60.105617
Cu 59.368673 55.392302 59.790204
Cu 58.466737 57.371649 58.447571
Cu 60.886208 56.609650 58.132158
Cu 46.350387 53.313702 58.171318
Cu 48.065144 53.703002 60.026586
Cu 47.163209 55.682350 58.683953
Cu 49.582680 54.920350 58.368540
Cu 48.877967 56.071650 60.539221
Cu 51.297438 55.309651 60.223808
Cu 50.395502 57.288998 58.881175
Cu 52.814973 56.526999 58.565762
Cu 52.110260 57.678299 60.736443
Cu 54.529731 56.916300 60.421030
Cu 53.627795 58.895647 59.078397
Cu 56.047266 58.133648 58.762984
Cu 55.342553 59.284948 60.933665
Cu 57.762024 58.522949 60.618252
Cu 56.860088 60.502296 59.275619
Cu 59.279559 59.740297 58.960206
Cu 47.976031 58.050998 59.196588
Cu 51.208324 59.657647 59.393810
Cu 54.440617 61.264295 59.591032
Cu 52.993200 47.831008 60.225758
Cu 53.806022 50.199656 60.738393
Cu 56.225493 49.437657 60.422980
Cu 57.038315 51.806305 60.935615
Cu 59.457786 51.044306 60.620202
Cu 51.386551 50.961655 61.053806
Cu 52.199373 53.330303 61.566441
Cu 54.618844 52.568304 61.251028
Cu 55.431666 54.936952 61.763663
Cu 57.851137 54.174953 61.448250
Cu 49.779902 54.092303 61.881854
Cu 53.012195 55.698951 62.079076
Cu 56.244488 57.305600 62.276298
