137
Generated rotated structure
Cu 49.138802 51.617089 50.848453
Cu 51.027654 50.320774 49.915275
Cu 52.188488 52.444580 49.254651
Cu 54.130765 51.148867 48.334542
Cu 55.274250 53.255226 47.723091
Cu 48.375542 55.098580 51.178680
Cu 50.264727 53.764812 50.204676
Cu 51.428588 55.908821 49.581994
Cu 53.352299 54.588691 48.631971
Cu 54.511666 56.736832 48.053434
Cu 49.519496 57.205651 50.566869
Cu 52.622056 58.033615 48.986865
Cu 51.465112 48.257848 53.652177
Cu 52.192596 48.638400 51.319235
Cu 54.544870 49.041734 52.094522
Cu 55.295598 49.466847 49.738429
Cu 57.601090 49.895059 50.527278
Cu 49.570355 49.558455 54.588585
Cu 48.408892 51.235268 53.189173
Cu 49.997384 49.603765 52.103088
Cu 50.722373 51.688983 54.000176
Cu 52.640014 50.372873 53.052618
Cu 51.460923 52.075323 51.631749
Cu 53.366828 50.744532 50.676098
Cu 53.791151 52.502855 52.430870
Cu 55.701083 51.189507 51.493203
Cu 54.521661 52.892510 50.072133
Cu 56.614670 51.366158 48.728172
Cu 56.861930 53.327550 50.872709
Cu 58.748071 52.007828 49.914297
Cu 57.586116 53.685226 48.514407
Cu 48.788325 52.992482 54.939323
Cu 47.645831 54.716850 53.518794
Cu 49.528527 53.378600 52.572619
Cu 49.968868 55.123574 54.326131
Cu 51.877084 53.816768 53.376455
Cu 50.707779 55.510128 51.956510
Cu 52.605925 54.201318 50.996815
Cu 53.034858 55.948856 52.757562
Cu 54.948711 54.635528 51.811931
Cu 53.769401 56.327405 50.397656
Cu 55.690197 55.023403 49.434108
Cu 56.109586 56.762383 51.198578
Cu 58.029307 55.458744 50.232407
Cu 56.823649 57.166888 48.844331
Cu 48.061573 56.442968 55.242249
Cu 48.359168 57.031414 52.803803
Cu 49.208585 58.555342 54.629168
Cu 51.129828 57.262213 53.705470
Cu 49.936598 58.936190 52.294542
Cu 51.851699 57.658269 51.330750
Cu 52.272496 59.410473 53.077315
Cu 54.191492 58.078989 52.146256
Cu 53.039144 59.764548 50.714584
Cu 54.986437 58.796159 49.432323
Cu 55.344683 60.192759 51.503343
Cu 57.239276 58.892475 50.567057
Cu 53.078877 48.307262 56.847062
Cu 53.804050 48.654184 54.470244
Cu 56.151063 49.089548 55.273089
Cu 56.891844 49.477067 52.897499
Cu 59.214974 49.944679 53.721237
Cu 51.184283 49.607546 57.783348
Cu 49.971453 51.284840 56.364308
Cu 51.888599 49.971249 55.416579
Cu 52.313974 51.737638 57.151826
Cu 54.232067 50.421032 56.204149
Cu 53.054117 52.117283 54.794475
Cu 54.971318 50.785976 53.847008
Cu 55.388710 52.551167 55.592838
Cu 57.293731 51.237808 54.644934
Cu 56.125504 52.936591 53.230018
Cu 58.050432 51.615227 52.278044
Cu 58.454683 53.376444 54.024277
Cu 60.361987 52.057053 53.108156
Cu 59.212385 53.751184 51.657382
Cu 50.394252 53.041277 58.117997
Cu 49.211174 54.748837 56.693022
Cu 51.124467 53.426328 55.747728
Cu 51.561629 55.172471 57.477695
Cu 53.474849 53.864493 56.538474
Cu 52.298055 55.563430 55.120386
Cu 54.211780 54.250010 54.175202
Cu 54.632399 55.997164 55.919539
Cu 56.546471 54.683253 54.973940
Cu 55.369430 56.382736 53.555925
Cu 57.299092 55.073693 52.602676
Cu 57.701184 56.811048 54.350229
Cu 59.635235 55.507538 53.411081
Cu 58.452106 57.215181 51.986097
Cu 49.675488 56.492193 58.436107
Cu 50.373127 56.884794 56.072361
Cu 50.822469 58.604962 57.823126
Cu 52.722476 57.310514 56.857201
Cu 51.531715 59.022954 55.452905
Cu 53.452241 57.714044 54.503396
Cu 53.878689 59.458287 56.255882
Cu 55.783545 58.127148 55.297786
Cu 54.619510 59.845837 53.880160
Cu 56.534960 58.528772 52.933825
Cu 56.958448 60.242173 54.698227
Cu 58.853204 58.941565 53.761819
Cu 55.384415 48.735473 57.635821
Cu 58.486961 49.563831 56.055862
Cu 51.599910 51.333133 59.506073
Cu 53.437123 49.703862 58.918081
Cu 53.911894 51.763188 60.296970
Cu 55.801504 50.466405 59.363539
Cu 54.654158 52.172616 57.952748
Cu 56.571861 50.841751 57.019654
Cu 56.994972 52.591200 58.768410
Cu 58.904063 51.294370 57.783536
Cu 57.715780 52.989893 56.393894
Cu 60.064391 51.468606 55.546601
Cu 60.048017 53.401441 57.171724
Cu 60.777728 53.783171 54.831610
Cu 50.837443 54.814795 59.835997
Cu 52.733362 53.476618 58.916297
Cu 53.149309 55.244795 60.627313
Cu 55.071260 53.911330 59.718433
Cu 53.901898 55.607511 58.278271
Cu 55.817634 54.298703 57.353589
Cu 56.235071 56.055441 59.095753
Cu 58.158833 54.735209 58.145729
Cu 56.962641 56.424698 56.718664
Cu 58.895032 55.121421 55.777785
Cu 59.284757 56.882932 57.501951
Cu 60.014667 57.264752 55.161231
Cu 51.808889 57.133863 59.622232
Cu 54.292794 57.351154 60.015862
Cu 53.127961 59.033174 58.611976
Cu 55.056731 57.755489 57.674306
Cu 57.395905 58.179246 58.435130
Cu 56.230963 59.861620 57.031169
Cu 58.426176 58.896255 56.247316
H 48.169222 56.758195 59.173029
H 47.605771 56.607665 59.460020
