137
Generated rotated structure
Cu 53.267171 54.065375 47.713831
Cu 55.166140 52.496872 47.943457
Cu 56.510616 54.260640 49.116494
Cu 58.435184 52.673659 49.391162
Cu 59.730695 54.415684 50.576565
Cu 52.648535 57.452546 48.691970
Cu 54.576849 55.858182 48.882358
Cu 55.895700 57.631430 50.088718
Cu 57.829437 56.033998 50.322858
Cu 59.112423 57.802732 51.555283
Cu 53.944653 59.195168 49.877735
Cu 57.212781 59.371843 51.325469
Cu 52.578818 49.629706 49.813376
Cu 54.821470 50.275482 48.994744
Cu 55.813431 49.767485 51.243054
Cu 58.090511 50.452646 50.442459
Cu 59.042311 49.978894 52.676420
Cu 50.673688 51.203266 49.583317
Cu 51.017042 53.417447 48.535192
Cu 52.818809 51.662559 48.338485
Cu 51.958525 52.960059 50.797975
Cu 53.886553 51.367649 51.030990
Cu 54.235288 53.615657 49.966891
Cu 56.161044 52.014960 50.181332
Cu 55.195744 53.131531 52.223988
Cu 57.111372 51.541840 52.458929
Cu 57.460059 53.790506 51.394684
Cu 59.792843 52.037208 51.421836
Cu 58.426360 53.309986 53.662370
Cu 60.341527 51.726142 53.865647
Cu 60.684936 53.941119 52.817105
Cu 50.025449 54.547586 50.543755
Cu 50.398995 56.804775 49.513123
Cu 52.302008 55.202098 49.714799
Cu 51.347741 56.301721 51.762687
Cu 53.271474 54.721256 51.991373
Cu 53.625646 56.957670 50.931183
Cu 55.550137 55.380596 51.145951
Cu 54.583001 56.484458 53.191493
Cu 56.507187 54.895350 53.424149
Cu 56.850434 57.132168 52.360092
Cu 58.792988 55.553548 52.589774
Cu 57.816418 56.651541 54.627915
Cu 59.760237 55.074159 54.855354
Cu 60.067057 57.328275 53.795662
Cu 49.450224 57.900959 51.518324
Cu 51.495320 58.892790 50.416191
Cu 50.749520 59.647854 52.707365
Cu 52.662952 58.070422 52.966323
Cu 52.993793 60.294114 51.888152
Cu 54.933761 58.741460 52.123477
Cu 53.972037 59.855227 54.156305
Cu 55.888020 58.244521 54.394849
Cu 56.261894 60.471149 53.336052
Cu 58.473479 59.265845 53.509412
Cu 57.213792 59.997401 55.569987
Cu 59.118736 58.424162 55.800132
Cu 51.256980 48.484917 52.936863
Cu 53.529656 49.109848 52.076693
Cu 54.498735 48.627091 54.350545
Cu 56.782383 49.284681 53.516950
Cu 57.721252 48.834464 55.799485
Cu 49.352036 50.058155 52.706718
Cu 49.676105 52.292637 51.611265
Cu 51.604030 50.702750 51.844771
Cu 50.654354 51.830777 53.878935
Cu 52.582752 50.237796 54.112001
Cu 52.923623 52.477248 53.053381
Cu 54.850709 50.870857 53.280498
Cu 53.887780 51.997860 55.315361
Cu 55.807820 50.411895 55.540527
Cu 56.159148 52.651907 54.486239
Cu 58.095104 51.053390 54.719535
Cu 57.123023 52.180596 56.744159
Cu 59.020549 50.581358 56.988526
Cu 59.410870 52.819304 55.922854
Cu 48.710535 53.408158 53.651496
Cu 49.059902 55.663014 52.583996
Cu 50.983112 54.065487 52.813064
Cu 50.044412 55.172332 54.844480
Cu 51.963585 53.586968 55.082701
Cu 52.311624 55.830410 54.020611
Cu 54.235386 54.241159 54.253425
Cu 53.275019 55.350786 56.282858
Cu 55.199302 53.761064 56.515468
Cu 55.547144 56.005072 55.453456
Cu 57.487660 54.416831 55.693786
Cu 56.512246 55.522268 57.708878
Cu 58.445323 53.934731 57.963095
Cu 58.794667 56.189681 56.895585
Cu 48.129245 56.756176 54.641203
Cu 50.375668 57.428927 53.787315
Cu 49.428462 58.503424 55.830430
Cu 51.359401 56.940477 56.047921
Cu 51.688389 59.197636 54.989900
Cu 53.620064 57.611460 55.226352
Cu 52.657341 58.714833 57.263796
Cu 54.584220 57.114669 57.475860
Cu 54.941116 59.372470 56.430157
Cu 56.866742 57.779568 56.662079
Cu 55.891954 58.852612 58.693474
Cu 57.797084 57.279051 58.923533
Cu 52.208878 48.011169 55.170798
Cu 55.476979 48.188203 56.618698
Cu 48.403715 51.154042 54.711188
Cu 49.997293 49.216473 54.997438
Cu 49.358349 50.679586 56.951567
Cu 51.257992 49.110474 57.181381
Cu 51.620338 51.350150 56.146758
Cu 53.537011 49.740857 56.383373
Cu 52.575073 50.850887 58.418132
Cu 54.526120 49.287149 58.629116
Cu 54.845127 51.524647 57.575667
Cu 56.975452 49.589528 58.090659
Cu 55.822237 51.029772 59.814880
Cu 58.071778 51.677543 58.993727
Cu 47.785837 54.541198 55.689746
Cu 49.677785 52.928769 55.917076
Cu 48.740077 54.066634 57.930285
Cu 50.641335 52.448320 58.183992
Cu 51.010713 54.691812 57.112166
Cu 52.920635 53.101721 57.360899
Cu 51.960156 54.221678 59.390356
Cu 53.893923 52.624136 59.624492
Cu 54.235480 54.866658 58.539968
Cu 56.168765 53.280219 58.792051
Cu 55.203602 54.416942 60.793019
Cu 57.453730 55.064871 59.971658
Cu 48.677929 56.445109 57.085014
Cu 50.035588 55.808658 59.115688
Cu 50.380261 58.029672 58.064391
Cu 52.309729 56.467358 58.325518
Cu 53.304632 55.985446 60.563393
Cu 53.649302 58.206836 59.512106
Cu 55.651963 56.819758 60.168365
H 46.590836 57.296535 54.167959
H 45.997274 57.264285 53.905008
