137
Generated rotated structure
Cu 53.155039 50.126848 49.222831
Cu 55.258654 49.200696 50.137195
Cu 56.371319 51.437232 49.903981
Cu 58.503891 50.525745 50.862751
Cu 59.571394 52.747540 50.657219
Cu 52.093751 53.347696 48.077320
Cu 54.229108 52.380412 48.972444
Cu 55.315856 54.641869 48.762984
Cu 57.458022 53.698776 49.694463
Cu 58.510496 55.968672 49.512207
Cu 53.161780 55.570242 47.871664
Cu 56.406126 56.895130 48.597403
Cu 53.139606 47.778927 53.586787
Cu 55.250979 48.024758 52.322529
Cu 56.355769 49.058774 54.324327
Cu 58.496161 49.350113 53.047872
Cu 59.556093 50.398907 55.022085
Cu 51.029178 48.708245 52.669725
Cu 51.036628 49.880197 50.491303
Cu 53.060088 48.541699 51.183196
Cu 52.084735 50.958210 52.480055
Cu 54.220524 50.017886 53.408255
Cu 54.228222 51.207780 51.196569
Cu 56.362485 50.249552 52.114975
Cu 55.298704 52.262964 53.194567
Cu 57.421883 51.324739 54.123970
Cu 57.429439 52.515065 51.911785
Cu 59.983564 51.363454 52.728429
Cu 58.505450 53.580012 53.915563
Cu 60.626625 52.627508 54.816172
Cu 60.634008 53.799851 52.636940
Cu 49.944138 51.881498 51.538230
Cu 49.975895 53.101104 49.345471
Cu 52.087623 52.131453 50.257111
Cu 51.037244 54.135569 51.349752
Cu 53.167018 53.201756 52.267887
Cu 53.181803 54.385280 50.065606
Cu 55.311534 53.445939 50.970503
Cu 54.247770 55.450769 52.060075
Cu 56.379287 54.512485 52.986434
Cu 56.383111 55.692953 50.781923
Cu 58.531283 54.763049 51.697860
Cu 57.458826 56.757864 52.785905
Cu 59.608027 55.827733 53.699187
Cu 59.573481 57.021012 51.491696
Cu 48.930447 55.077552 50.405335
Cu 50.791509 55.410509 48.730094
Cu 50.001104 57.305767 50.199472
Cu 52.120959 56.391422 51.141151
Cu 52.114001 57.551797 48.934300
Cu 54.256130 56.645689 49.839750
Cu 53.196051 58.651354 50.912745
Cu 55.322591 57.698576 51.857367
Cu 55.358275 58.877068 49.659963
Cu 57.719519 58.237288 50.283764
Cu 56.418304 59.925859 51.634143
Cu 58.528504 58.996830 52.551102
Cu 52.062647 48.601027 56.900135
Cu 54.205684 48.808417 55.611774
Cu 55.284899 49.875532 57.621533
Cu 57.434867 50.125867 56.334161
Cu 58.479846 51.221119 58.334806
Cu 49.952447 49.530056 55.983175
Cu 49.936882 50.688051 53.756799
Cu 52.072230 49.750020 54.683918
Cu 51.022124 51.769022 55.748373
Cu 53.158360 50.828311 56.676911
Cu 53.159590 52.013887 54.475452
Cu 55.296256 51.058816 55.407242
Cu 54.233189 53.076121 56.474204
Cu 56.359991 52.135465 57.393126
Cu 56.371597 53.325097 55.193752
Cu 58.516091 52.380854 56.124965
Cu 57.443698 54.391314 57.184524
Cu 59.550503 53.449334 58.128942
Cu 59.600736 54.634352 55.917695
Cu 48.872923 52.699154 54.835091
Cu 48.880215 53.892534 52.616583
Cu 51.011855 52.945308 53.545116
Cu 49.975501 54.946874 54.618715
Cu 52.101663 54.014401 55.547844
Cu 52.109354 55.201789 53.340526
Cu 54.240475 54.263443 54.267139
Cu 53.182238 56.263918 55.339709
Cu 55.313936 55.325128 56.266382
Cu 55.321355 56.512993 54.058814
Cu 57.469096 55.581578 54.989162
Cu 56.396213 57.568686 56.054219
Cu 58.536813 56.645388 56.996047
Cu 58.544068 57.838836 54.777479
Cu 47.854325 55.899378 53.718105
Cu 49.964860 56.146032 52.409312
Cu 48.924858 58.127979 53.512192
Cu 51.059068 57.202147 54.410307
Cu 51.046084 58.401020 52.200117
Cu 53.184695 57.468070 53.127035
Cu 52.125182 59.468112 54.209951
Cu 54.260427 58.509000 55.126023
Cu 54.275267 59.718470 52.922503
Cu 56.408721 58.776866 53.850359
Cu 55.341345 60.747960 54.947491
Cu 57.451773 59.818642 55.864553
Cu 53.122676 49.649819 58.874315
Cu 56.366950 50.975089 59.599978
Cu 48.907469 51.505875 57.042581
Cu 50.761432 50.289598 58.250513
Cu 49.970454 52.558215 59.022071
Cu 52.074824 51.631756 59.936875
Cu 52.097840 52.833933 57.752355
Cu 54.224821 51.881197 58.694528
Cu 53.165095 53.885018 59.771294
Cu 55.319171 52.956644 60.662613
Cu 55.299148 54.141606 58.468672
Cu 57.689442 53.116377 59.804184
Cu 56.387200 55.179190 60.456958
Cu 58.505056 55.425782 59.188806
Cu 47.846943 54.727035 55.897338
Cu 49.949668 53.763837 56.836418
Cu 48.909556 55.779347 57.877059
Cu 51.022928 54.828110 58.839815
Cu 51.051512 56.011821 56.622493
Cu 53.169417 55.080948 57.563775
Cu 52.109631 57.089654 58.630297
Cu 54.251843 56.146474 59.561833
Cu 54.252725 57.319109 57.337718
Cu 56.393328 56.395433 58.277167
Cu 55.325912 58.400038 59.311447
Cu 57.444323 58.646689 58.042975
Cu 48.497387 57.163432 55.805848
Cu 49.977060 58.001141 57.671527
Cu 49.984790 59.176773 55.486406
Cu 52.118466 58.277334 56.419302
Cu 53.222297 59.326191 58.397083
Cu 53.229972 60.502129 56.211748
Cu 55.420863 59.985188 57.351082
H 46.245138 55.896605 53.176663
H 45.655917 55.655841 53.044940
