179
Generated rotated structure
Cu 52.936648 49.011972 48.976806
Cu 49.094602 51.611166 50.849110
Cu 51.008713 50.296126 49.902612
Cu 49.851009 52.008514 48.504778
Cu 52.177888 52.433414 49.281766
Cu 54.099197 51.121790 48.328543
Cu 52.923820 52.829429 46.939678
Cu 55.258206 53.257840 47.709759
Cu 47.212557 52.938334 51.807398
Cu 48.336861 55.074043 51.177714
Cu 50.255161 53.753516 50.233164
Cu 49.097098 55.453639 48.831681
Cu 50.996688 54.141107 47.858418
Cu 51.419614 55.898521 49.610560
Cu 53.342997 54.578434 48.660411
Cu 52.169926 56.274537 47.266583
Cu 54.500441 56.720665 48.038310
Cu 56.405281 55.394245 47.125145
Cu 49.495757 57.210072 50.558674
Cu 50.680830 59.320573 49.954945
Cu 52.586206 58.035711 48.984567
Cu 51.447105 48.212309 53.685881
Cu 53.368580 46.928355 52.745776
Cu 52.184558 48.598180 51.319449
Cu 54.528138 49.038924 52.115428
Cu 56.441128 47.749171 51.180787
Cu 55.274235 49.423554 49.745703
Cu 57.611426 49.859130 50.546088
Cu 47.645438 50.854887 55.575035
Cu 49.534442 49.525346 54.630501
Cu 48.357999 51.225322 53.212243
Cu 50.266488 49.906333 52.264390
Cu 50.697200 51.664364 54.014113
Cu 52.610628 50.350050 53.067379
Cu 51.434482 52.049757 51.649064
Cu 53.354706 50.743324 50.705697
Cu 53.776430 52.489725 52.449678
Cu 55.694597 51.173937 51.496572
Cu 54.517862 52.873504 50.078591
Cu 56.436818 51.554746 49.121559
Cu 56.853731 53.309089 50.878333
Cu 58.769059 51.992410 49.926889
Cu 57.592476 53.692358 48.508702
Cu 59.908176 54.130906 49.329085
Cu 46.891435 54.300329 55.901967
Cu 48.781168 52.982669 54.958280
Cu 47.599957 54.689055 53.540885
Cu 49.526858 53.369697 52.598751
Cu 49.940563 55.121971 54.342186
Cu 51.860975 53.804741 53.396787
Cu 50.677730 55.507970 51.977208
Cu 52.596658 54.190701 51.025657
Cu 53.021089 55.941428 52.777200
Cu 54.936612 54.626411 51.830247
Cu 53.761095 56.331727 50.406709
Cu 55.674118 55.011966 49.467693
Cu 56.097109 56.766689 51.206410
Cu 58.010639 55.448302 50.257334
Cu 56.834493 57.156048 48.837393
Cu 59.154185 57.576316 49.656046
Cu 48.021574 56.438552 55.286440
Cu 48.752084 56.826540 52.921006
Cu 49.180065 58.571837 54.668835
Cu 51.099128 57.257090 53.722768
Cu 49.917511 58.957807 52.302417
Cu 51.845868 57.638307 51.359942
Cu 52.262486 59.392023 53.097827
Cu 54.183089 58.080994 52.151977
Cu 53.007203 59.783190 50.728730
Cu 54.922446 58.474914 49.778239
Cu 55.344420 60.218649 51.529104
Cu 57.256254 58.905583 50.582886
Cu 50.358773 60.682065 54.050813
Cu 53.431346 61.502874 52.485845
Cu 50.729956 47.858260 56.049053
Cu 53.052867 48.262112 56.864600
Cu 54.965941 46.977888 55.907858
Cu 53.786859 48.651537 54.492376
Cu 55.709702 47.335374 53.541665
Cu 56.134800 49.088739 55.295877
Cu 58.038513 47.798696 54.342891
Cu 56.875901 49.476767 52.919009
Cu 59.217221 49.908924 53.724869
Cu 59.923130 50.314252 51.366549
Cu 49.243102 50.904445 58.737658
Cu 51.141032 49.575179 57.810818
Cu 49.962607 51.275533 56.383135
Cu 51.879184 49.971904 55.435393
Cu 52.300178 51.714072 57.187294
Cu 54.214198 50.399767 56.241727
Cu 53.038448 52.103733 54.816390
Cu 54.955059 50.783848 53.868862
Cu 55.376197 52.539334 55.616504
Cu 57.298158 51.223672 54.670936
Cu 56.114180 52.925408 53.249791
Cu 58.026877 51.614269 52.304103
Cu 58.456724 53.358790 54.051518
Cu 60.375712 52.042209 53.107264
Cu 59.192701 53.741362 51.681883
Cu 61.505851 54.180432 52.491736
Cu 48.039295 52.594903 57.334067
Cu 48.489110 54.349856 59.064619
Cu 50.386647 53.032459 58.136369
Cu 49.204586 54.739400 56.711821
Cu 51.118677 53.417575 55.765597
Cu 51.543556 55.171672 57.515370
Cu 53.460675 53.854350 56.563457
Cu 52.283107 55.555353 55.143913
Cu 54.198643 54.240381 54.196852
Cu 54.620857 55.991037 55.944026
Cu 56.536311 54.676020 54.996917
Cu 55.358839 56.377029 53.577314
Cu 57.278610 55.063186 52.628107
Cu 57.700086 56.816397 54.379591
Cu 59.616118 55.498092 53.435424
Cu 58.434680 57.205229 52.010569
Cu 60.357991 55.885858 51.059637
Cu 60.751848 57.625874 52.818669
Cu 49.628227 56.488351 58.466815
Cu 48.474156 58.166509 57.027155
Cu 50.370409 56.866493 56.089600
Cu 50.785861 58.621631 57.847616
Cu 52.702690 57.306824 56.897132
Cu 51.521385 59.003994 55.474695
Cu 53.442227 57.696914 54.524841
Cu 53.869149 59.441838 56.278276
Cu 55.786659 58.130711 55.326325
Cu 54.610428 59.829224 53.901328
Cu 56.518102 58.508858 52.958311
Cu 56.950182 60.268452 54.707823
Cu 58.862845 58.955415 53.763203
Cu 57.667330 60.622501 52.344651
Cu 51.956158 60.731590 57.212917
Cu 52.687584 61.145387 54.852039
Cu 55.028706 61.552406 55.647928
Cu 55.390083 48.697572 57.664974
Cu 57.716456 49.160188 58.438759
Cu 58.479776 49.522954 56.091287
Cu 51.562793 51.324713 59.556311
Cu 53.474841 50.005848 58.615465
Cu 53.896846 51.760096 60.355394
Cu 55.811081 50.445050 59.409137
Cu 54.636192 52.149035 57.986995
Cu 56.551419 50.842455 57.033762
Cu 56.977672 52.582240 58.783144
Cu 58.901530 51.270689 57.835030
Cu 57.719556 52.972791 56.416496
Cu 59.645203 51.654221 55.472698
Cu 60.060425 53.406718 57.215990
Cu 60.797330 53.791706 54.852819
Cu 51.992006 53.086517 61.268559
Cu 50.804811 54.788403 59.885002
Cu 52.723169 53.468796 58.926011
Cu 53.139080 55.222922 60.683944
Cu 55.054290 53.902328 59.733293
Cu 53.879424 55.607257 58.315113
Cu 55.800629 54.290060 57.368047
Cu 56.219398 56.047347 59.111938
Cu 58.142125 54.727246 58.160540
Cu 56.962805 56.431004 56.744640
Cu 58.870429 55.111064 55.794953
Cu 59.302685 56.869595 57.544594
Cu 61.184729 55.542427 56.586306
Cu 60.039288 57.255439 55.181461
Cu 51.960468 56.926015 59.272145
Cu 54.298089 57.358971 60.065161
Cu 53.123052 59.057207 58.648001
Cu 55.042580 57.737437 57.688007
Cu 55.460639 59.468790 59.416898
Cu 57.388573 58.184635 58.491092
Cu 56.212728 59.882582 57.074255
Cu 58.130799 58.574429 56.129314
Cu 56.227360 52.206224 61.127121
Cu 59.300188 53.027122 59.562023
Cu 55.473467 55.651333 61.454026
Cu 57.400599 54.339654 60.535286
Cu 58.546278 56.472247 59.888926
H 49.839897 46.337228 56.489086
H 49.276446 46.186698 56.776077
