251
Generated rotated structure
Cu 54.142949 46.913155 50.267658
Cu 57.370950 48.232532 50.989841
Cu 60.599399 49.551350 51.711034
Cu 52.018596 47.848523 49.344935
Cu 54.151105 48.111314 48.082591
Cu 53.089763 50.107679 49.126174
Cu 55.240987 49.160481 50.060568
Cu 55.239397 50.352966 47.849422
Cu 57.371136 49.435964 48.789379
Cu 56.318774 51.431137 49.849995
Cu 58.459766 50.475719 50.780144
Cu 58.472372 51.674004 48.572172
Cu 60.592344 50.743293 49.522566
Cu 59.551217 52.747918 50.570669
Cu 61.677218 51.795169 51.504175
Cu 50.963520 51.053775 48.206753
Cu 53.112615 51.311020 46.939670
Cu 52.037801 53.303353 47.990734
Cu 54.187024 52.369761 48.924059
Cu 54.182795 53.562733 46.708975
Cu 56.329684 52.616764 47.634113
Cu 55.268595 54.621393 48.716480
Cu 57.400346 53.682769 49.642415
Cu 57.415771 54.883772 47.431724
Cu 59.531753 53.933968 48.374705
Cu 58.499255 55.943592 49.435228
Cu 60.621834 55.000296 50.365923
Cu 49.908497 54.258626 47.067391
Cu 52.045977 54.506315 45.810412
Cu 50.986316 56.502445 46.860532
Cu 53.129252 55.575553 47.781258
Cu 55.273232 55.809024 46.524996
Cu 54.214411 57.821534 47.582817
Cu 56.348032 56.890790 48.500835
Cu 58.487216 57.138294 47.250388
Cu 57.442766 59.140639 48.303907
Cu 59.567119 58.205272 49.226630
Cu 52.010661 46.664957 51.544288
Cu 54.135170 45.748653 52.471046
Cu 53.074113 47.722687 53.556839
Cu 55.215333 46.783845 54.477329
Cu 55.233069 47.974083 52.264379
Cu 57.355448 47.057810 53.206331
Cu 56.303050 49.045035 54.281636
Cu 58.449541 48.105387 55.200354
Cu 58.451884 49.289336 52.983963
Cu 60.576880 48.380825 53.911127
Cu 59.535059 50.362719 55.001220
Cu 61.669084 50.611522 53.703483
Cu 49.895844 47.615257 50.629676
Cu 48.812149 49.603219 51.696085
Cu 50.944852 48.660215 52.631985
Cu 50.952861 49.858687 50.405251
Cu 53.091091 48.922081 51.344903
Cu 52.026774 50.923587 52.418158
Cu 54.166935 49.981252 53.347748
Cu 54.174765 51.173791 51.132563
Cu 56.311186 50.237685 52.065324
Cu 55.251550 52.242875 53.140169
Cu 57.391969 51.299046 54.068723
Cu 57.399962 52.491651 51.853574
Cu 59.531369 51.553667 52.784663
Cu 58.477803 53.559566 53.860322
Cu 60.615367 52.611721 54.793883
Cu 60.623504 53.810245 52.567177
Cu 62.727758 52.858554 53.498322
Cu 61.698272 54.868666 54.576850
Cu 48.829469 50.811856 49.503032
Cu 47.755150 52.814192 50.555209
Cu 49.889601 51.868920 51.495925
Cu 49.900887 53.054397 49.269798
Cu 52.038244 52.119090 50.209351
Cu 50.972767 54.125471 51.280511
Cu 53.113347 53.184349 52.211439
Cu 53.120705 54.375837 49.994859
Cu 55.257969 53.435550 50.931492
Cu 54.198190 55.442797 52.003219
Cu 56.336387 54.501327 52.931967
Cu 56.345902 55.693697 50.715870
Cu 58.479120 54.750921 51.649245
Cu 57.423796 56.761450 52.722675
Cu 59.556998 55.819151 53.657126
Cu 59.571530 57.005955 51.431724
Cu 61.681217 56.063257 52.376112
Cu 60.641273 58.079640 53.435974
Cu 47.790562 54.010727 48.357331
Cu 48.833284 55.074782 50.352855
Cu 48.854092 56.254049 48.137232
Cu 50.986277 55.316128 49.073063
Cu 49.913592 57.323785 50.145518
Cu 52.058601 56.385992 51.072110
Cu 52.072507 57.575307 48.853012
Cu 54.206177 56.632326 49.793273
Cu 53.143549 58.643036 50.871414
Cu 55.283636 57.703785 51.793085
Cu 55.291322 58.890559 49.572596
Cu 57.426556 57.947715 50.512824
Cu 56.374538 59.963816 51.589899
Cu 58.503799 59.026288 52.514753
Cu 58.512515 60.200614 50.296427
Cu 60.622476 59.254024 51.225977
Cu 49.941431 58.488452 47.944524
Cu 51.003887 59.577467 49.931686
Cu 53.155237 59.817304 48.672813
Cu 54.238095 60.899008 50.654711
Cu 56.383150 61.120627 49.384607
Cu 50.939196 47.483170 54.840508
Cu 53.079423 46.560037 55.765352
Cu 52.005978 48.538738 56.843204
Cu 54.142421 47.603546 57.778391
Cu 54.163109 48.795777 55.562406
Cu 56.298022 47.848266 56.491576
Cu 55.236967 49.859518 57.561688
Cu 57.376629 48.925088 58.501417
Cu 57.376849 50.108956 56.280855
Cu 59.500991 49.183978 57.200929
Cu 58.466924 51.178770 58.287585
Cu 60.598018 51.429897 56.999792
Cu 48.814214 48.438037 53.912738
Cu 47.739243 50.422915 54.997129
Cu 49.876717 49.476266 55.918350
Cu 49.881808 50.680863 53.702802
Cu 52.022318 49.738028 54.632631
Cu 50.956719 51.741104 55.710428
Cu 53.096880 50.798769 56.640018
Cu 53.105397 51.992798 54.424762
Cu 55.242194 51.055684 55.351963
Cu 54.182326 53.059758 56.429884
Cu 56.321914 52.116563 57.360993
Cu 56.328491 53.309799 55.145303
Cu 58.463213 52.369867 56.072529
Cu 57.407749 54.377084 57.152592
Cu 59.547232 53.427772 58.080248
Cu 59.549024 54.631021 55.863963
Cu 61.665001 53.689046 56.785604
Cu 60.625365 55.688362 57.877894
Cu 47.740951 51.616001 52.774773
Cu 46.682244 53.633888 53.856253
Cu 48.823518 52.683403 54.775977
Cu 48.831492 53.871533 52.569140
Cu 50.971560 52.936073 53.496993
Cu 49.902713 54.942988 54.572781
Cu 52.044129 54.001227 55.501135
Cu 52.052025 55.192756 53.287800
Cu 54.190258 54.251277 54.216551
Cu 53.128966 56.259680 55.292934
Cu 55.267169 55.318206 56.221664
Cu 55.275119 56.509756 54.008341
Cu 57.408956 55.566481 54.936109
Cu 56.353742 57.578967 56.014945
Cu 58.490915 56.633635 56.937178
Cu 58.498708 57.821691 54.730301
Cu 60.639565 56.886553 55.658330
Cu 59.568367 58.899336 56.737018
Cu 46.715515 54.813509 51.647499
Cu 47.765149 55.890833 53.639219
Cu 47.782498 57.072657 51.433311
Cu 49.917303 56.132688 52.360574
Cu 48.845457 58.139835 53.431882
Cu 50.988547 57.203509 54.364380
Cu 51.003667 58.393599 52.152248
Cu 53.138322 57.446870 53.081140
Cu 52.077466 59.457520 54.151467
Cu 54.213581 58.521302 55.085354
Cu 54.217406 59.706777 52.870697
Cu 56.358198 58.764526 53.800472
Cu 55.306403 60.779867 54.876263
Cu 57.435664 59.842339 55.801118
Cu 57.441319 61.019385 53.592595
Cu 59.566302 60.064518 54.520365
Cu 48.879525 59.318576 51.232174
Cu 49.930975 60.397167 53.232749
Cu 52.082494 60.654289 51.941527
Cu 53.165183 61.718709 53.955774
Cu 55.301093 61.942518 52.667751
Cu 49.868001 48.301941 58.136676
Cu 51.997365 47.381927 59.048496
Cu 50.937750 49.361915 60.129195
Cu 53.089194 49.611995 58.860506
Cu 55.225279 48.685251 59.760289
Cu 54.166105 50.681021 60.850286
Cu 56.308009 50.927248 59.580091
Cu 58.439085 50.014103 60.488579
Cu 57.394200 52.000109 61.572571
Cu 59.526424 52.248506 60.295871
Cu 47.758040 49.248531 57.207125
Cu 48.813397 50.297282 59.206473
Cu 48.808986 51.496599 57.001378
Cu 50.953960 50.554840 57.920279
Cu 49.881261 52.558962 58.997874
Cu 52.032484 51.611764 59.932268
Cu 52.034614 52.808858 57.717233
Cu 54.174339 51.870228 58.639830
Cu 53.111921 53.881161 59.716623
Cu 55.251264 52.927002 60.651844
Cu 55.259811 54.126718 58.438244
Cu 57.394239 53.186426 59.360040
Cu 56.342715 55.199201 60.442369
Cu 58.472019 54.243928 61.365712
Cu 58.479629 55.448157 59.163305
Cu 60.589954 54.491828 60.075772
Cu 46.699299 52.439297 56.056990
Cu 47.758682 53.502259 58.067180
Cu 47.757012 54.692309 55.865926
Cu 49.901396 53.751633 56.783858
Cu 48.829299 55.754636 57.862434
Cu 50.980170 54.819785 58.790687
Cu 50.980554 56.010903 56.579528
Cu 53.122547 55.067004 57.501611
Cu 52.061742 57.071417 58.583108
Cu 54.193492 56.132793 59.509044
Cu 54.205751 57.328763 57.300539
Cu 56.342272 56.383464 58.223752
Cu 55.290753 58.394875 59.306929
Cu 57.416996 57.448779 60.226350
Cu 57.427655 58.643867 58.027852
Cu 59.551047 57.690698 58.930071
Cu 45.652758 55.644001 54.934781
Cu 46.703298 56.707386 56.928928
Cu 46.711432 57.891032 54.729620
Cu 48.849147 56.948887 55.648440
Cu 47.781116 58.951204 56.722069
Cu 49.920750 58.026836 57.652959
Cu 49.928632 59.213219 55.449140
Cu 52.069330 58.264870 56.367779
Cu 51.009566 60.270022 57.443262
Cu 53.139529 59.342073 58.372535
Cu 53.147447 60.528471 56.168724
Cu 55.289425 59.580474 57.088200
Cu 54.237567 61.589399 58.165445
Cu 56.361920 60.654032 59.088168
Cu 56.369855 61.837597 56.888815
Cu 58.484672 60.887298 57.803427
Cu 47.803636 60.121729 54.521976
Cu 51.025067 61.444745 55.226772
Cu 54.245346 62.753901 55.962056
Cu 49.893299 51.364260 61.182715
Cu 50.964745 53.618783 61.001379
Cu 53.107284 52.693530 61.908107
Cu 54.197720 54.939821 61.724128
Cu 56.334539 53.996239 62.622691
Cu 48.848763 54.568586 60.058398
Cu 49.908144 56.828551 59.860931
Cu 52.050832 55.885790 60.798990
Cu 53.141119 58.149589 60.583681
Cu 55.267901 57.191535 61.493433
Cu 47.788172 57.759262 58.910537
Cu 51.009380 59.066590 59.643724
Cu 54.229411 60.391241 60.350512
H 54.052814 46.982401 46.445331
H 53.463593 46.741637 46.313607
