371
Generated rotated structure
Cu 51.343413 52.694748 45.086287
Cu 53.592052 51.833560 44.594042
Cu 54.811845 53.924547 45.191446
Cu 57.285328 53.837837 45.033229
Cu 58.199364 56.096052 45.360771
Cu 49.481146 56.365412 46.042306
Cu 51.586078 55.109438 45.609544
Cu 52.691240 58.234096 46.291019
Cu 56.049302 57.242607 45.886528
Cu 56.219148 59.662084 46.449078
Cu 50.254056 58.630247 46.601066
Cu 53.895553 60.349577 46.813368
Cu 52.781606 48.438967 47.107059
Cu 55.242059 48.169986 47.484987
Cu 54.392043 50.095099 46.168215
Cu 56.850799 49.836782 46.550686
Cu 59.047372 50.047727 47.717279
Cu 58.170159 51.957914 46.392467
Cu 60.396334 52.152710 47.513010
Cu 48.437138 50.344530 48.361175
Cu 50.393866 49.141179 47.353362
Cu 49.907157 51.513793 46.734056
Cu 51.931040 50.377939 45.790868
Cu 51.536718 52.268335 48.474013
Cu 53.900823 51.521453 48.160178
Cu 52.995476 53.441831 46.824499
Cu 56.000395 51.723336 45.177734
Cu 54.704684 53.852104 48.618388
Cu 57.084729 53.099585 48.335574
Cu 56.203246 55.005212 46.979686
Cu 59.448159 54.105831 46.241153
Cu 57.879110 55.418696 48.814963
Cu 61.196313 54.482550 47.976186
Cu 59.671372 56.346878 47.340823
Cu 61.346245 56.696738 49.141302
Cu 46.560197 54.052828 49.325519
Cu 47.950019 52.714454 47.736226
Cu 48.030990 55.219328 47.699434
Cu 49.443414 53.889997 46.131244
Cu 49.959065 55.372202 49.282371
Cu 52.323735 54.610176 48.932544
Cu 51.415203 56.558127 47.629718
Cu 53.825933 56.201044 45.411397
Cu 53.134647 56.935973 49.418466
Cu 55.514187 56.193374 49.097952
Cu 54.694016 58.169097 47.774960
Cu 58.236979 58.242424 46.600633
Cu 56.311098 58.519402 49.641358
Cu 59.872489 58.586448 48.440181
Cu 57.818535 60.010187 48.315662
Cu 59.482334 60.390830 50.120375
Cu 46.669306 56.563916 49.302451
Cu 48.212890 57.718864 47.720531
Cu 47.367596 58.920942 49.866303
Cu 50.765109 57.693992 49.759020
Cu 49.484604 59.604859 48.752382
Cu 51.878905 59.731912 48.117147
Cu 50.961301 61.383501 49.735263
Cu 53.933872 59.254258 49.917186
Cu 53.314257 61.608679 48.869766
Cu 55.716102 61.365418 48.210674
Cu 55.085054 62.689435 50.237823
Cu 57.425387 61.823658 49.992136
Cu 48.835296 60.720070 50.868963
Cu 52.696376 62.607501 51.049929
Cu 54.712042 45.359117 50.712554
Cu 56.082922 46.254256 48.829507
Cu 58.019138 47.005971 50.227850
Cu 59.907233 48.129876 49.036959
Cu 61.291319 48.783743 50.987241
Cu 49.920133 46.157177 50.433774
Cu 52.286954 45.454250 50.120422
Cu 51.246030 47.104160 48.548719
Cu 53.651083 46.426161 48.288249
Cu 53.309926 48.415799 51.140490
Cu 55.679852 47.662665 50.838838
Cu 54.776623 49.589874 49.491964
Cu 57.685137 47.949343 47.939210
Cu 56.476481 49.991543 51.286840
Cu 58.838727 49.247176 50.993807
Cu 57.980975 51.190586 49.671822
Cu 61.213259 50.263839 48.950956
Cu 59.651797 51.558822 51.499352
Cu 62.803393 50.756842 50.807720
Cu 62.188831 52.564681 49.216039
Cu 63.427549 53.119825 51.322953
Cu 48.080166 47.502073 51.427276
Cu 46.964089 49.186047 49.988977
Cu 48.950455 47.991550 49.049075
Cu 48.582422 49.927699 51.736589
Cu 50.916113 49.039765 51.513763
Cu 50.160564 50.940251 50.075243
Cu 51.965132 49.386336 49.274544
Cu 51.747762 51.494362 51.916529
Cu 54.110558 50.745649 51.604805
Cu 53.224177 52.677003 50.271018
Cu 55.595996 51.915734 49.952721
Cu 54.907371 53.065621 52.085876
Cu 57.271373 52.315445 51.782239
Cu 56.388720 54.248094 50.444988
Cu 59.828175 53.258692 49.672373
Cu 58.067603 54.631773 52.271939
Cu 60.453741 53.868657 52.002553
Cu 59.564172 55.772269 50.637065
Cu 62.990744 54.900656 49.651608
Cu 61.224222 56.189823 52.474724
Cu 63.528794 55.240561 52.656289
Cu 63.008237 57.022400 50.971167
Cu 46.206566 50.770032 51.765848
Cu 45.107372 52.897675 50.994334
Cu 46.512805 51.562747 49.414752
Cu 47.025561 52.991676 52.559947
Cu 49.381390 52.240966 52.215887
Cu 48.486069 54.189016 50.915707
Cu 50.847549 53.423903 50.576033
Cu 50.180967 54.561298 52.712527
Cu 52.542703 53.814559 52.396214
Cu 51.657130 55.752276 51.070107
Cu 54.022834 55.001038 50.744846
Cu 53.340566 56.132451 52.884916
Cu 55.704701 55.385087 52.572869
Cu 54.820794 57.319943 51.244050
Cu 57.201111 56.573239 50.928297
Cu 56.501454 57.701188 53.069597
Cu 58.868713 56.954891 52.752286
Cu 57.979642 58.902191 51.456024
Cu 61.494487 58.896488 50.302544
Cu 59.672049 59.269291 53.264768
Cu 62.020805 58.545869 52.720865
Cu 61.154944 60.752654 51.917504
Cu 44.771878 53.731242 53.339868
Cu 45.028823 55.381023 50.766739
Cu 44.777812 56.223699 53.092144
Cu 47.811578 55.307715 53.047468
Cu 45.760989 57.699580 51.327977
Cu 48.165285 57.007329 51.252115
Cu 48.502138 57.626564 53.642081
Cu 50.977512 56.877194 53.204074
Cu 49.912592 58.701051 51.879740
Cu 52.453139 58.081891 51.557118
Cu 51.766920 59.201175 53.681464
Cu 54.137541 58.446213 53.382572
Cu 53.440129 60.445909 52.067301
Cu 55.891344 60.818178 51.682925
Cu 54.981223 60.841765 54.000054
Cu 57.305088 60.023177 53.588142
Cu 56.766963 63.136775 52.021525
Cu 59.069815 62.144945 51.856982
Cu 58.295633 63.204183 53.981137
Cu 60.183609 61.591520 54.036265
Cu 45.428775 58.578689 53.624125
Cu 46.753829 59.996199 52.046830
Cu 46.974181 60.308873 54.518138
Cu 49.394719 59.921257 54.010324
Cu 48.187251 61.839774 52.985811
Cu 50.359931 62.423145 51.921168
Cu 50.205612 62.248181 54.422492
Cu 52.584768 61.505605 54.190030
Cu 52.079941 63.720038 53.185487
Cu 54.404526 63.923132 52.294565
Cu 53.570332 63.589328 55.178989
Cu 55.893737 63.791500 54.279354
Cu 54.877678 44.804173 53.270218
Cu 56.810575 45.729295 52.005081
Cu 58.242394 46.145328 54.026717
Cu 59.736845 47.330743 52.315388
Cu 61.473825 48.084636 53.931071
Cu 50.152374 45.189326 54.468073
Cu 52.554269 44.602009 54.169855
Cu 51.054622 44.793816 52.183361
Cu 53.063589 46.248902 52.358218
Cu 53.466784 47.551744 54.449155
Cu 55.863243 46.887895 54.259177
Cu 54.998630 48.820694 52.939943
Cu 57.369944 48.063694 52.639143
Cu 56.681086 49.192333 54.767745
Cu 59.053287 48.472252 54.438885
Cu 58.150279 50.386137 53.113912
Cu 61.507676 50.358513 52.904445
Cu 59.945860 50.766940 54.807128
Cu 63.019239 49.814827 54.825075
Cu 63.798223 51.331063 53.014754
Cu 63.670194 52.169809 55.357065
Cu 48.264398 46.801989 54.412944
Cu 47.103206 48.740197 53.362601
Cu 50.127037 47.028664 52.772438
Cu 48.775957 49.124216 55.184451
Cu 51.142909 48.370327 54.861067
Cu 50.264878 50.312371 53.558120
Cu 52.630015 49.567548 53.248190
Cu 51.946552 50.692321 55.379612
Cu 54.310465 49.947295 55.066637
Cu 53.428872 51.882112 53.736690
Cu 55.790721 51.134197 53.425743
Cu 55.107440 52.261058 55.564293
Cu 57.470495 51.516312 55.245145
Cu 56.583916 53.450694 53.914501
Cu 58.943954 52.703154 53.605040
Cu 58.267039 53.832211 55.736682
Cu 60.636429 53.085794 55.401741
Cu 59.736656 55.020792 54.096997
Cu 62.316537 53.256092 53.557882
Cu 61.422445 55.401835 55.889252
Cu 63.676129 54.662267 55.109341
Cu 62.990971 56.948488 54.390844
Cu 46.427193 49.847633 55.728353
Cu 45.457035 51.445021 54.058365
Cu 47.903897 51.052810 53.863522
Cu 47.223789 52.203699 55.974488
Cu 49.579303 51.438622 55.696923
Cu 48.711350 53.372716 54.352212
Cu 51.067719 52.626533 54.046394
Cu 50.380407 53.761727 56.177268
Cu 52.743306 53.008421 55.876340
Cu 51.864090 54.942815 54.534708
Cu 54.224003 54.196754 54.224605
Cu 53.540639 55.327880 56.363331
Cu 55.905303 54.578952 56.052985
Cu 55.019129 56.511405 54.712521
Cu 57.380287 55.766976 54.402815
Cu 56.700244 56.899147 56.532680
Cu 59.066620 56.152556 56.233325
Cu 58.183128 58.081138 54.891089
Cu 60.544108 57.340701 54.585677
Cu 59.865584 58.465810 56.712620
Cu 62.241440 57.623477 56.683361
Cu 61.344801 59.653312 55.086609
Cu 44.919212 53.152948 55.792920
Cu 46.131465 55.137426 54.891329
Cu 45.020457 55.273684 57.126256
Cu 47.994265 54.524852 56.446656
Cu 44.649783 57.062446 55.434455
Cu 49.504052 55.690354 54.844169
Cu 48.796205 56.834696 56.949860
Cu 51.176625 56.078057 56.666980
Cu 50.297737 58.007374 55.335307
Cu 52.657286 57.259312 55.023467
Cu 51.971525 58.401966 57.162370
Cu 54.337448 57.647860 56.844404
Cu 53.449376 59.572815 55.509266
Cu 55.817992 58.825961 55.201019
Cu 55.138080 59.977710 57.308719
Cu 57.531902 59.353749 56.935447
Cu 57.393393 63.599697 56.265849
Cu 58.320960 61.364841 55.676770
Cu 58.527865 62.236325 58.015445
Cu 60.367840 60.891436 57.021933
Cu 45.644614 57.636665 57.641499
Cu 46.940321 58.034991 55.544764
Cu 47.156683 59.609775 57.461970
Cu 49.609279 59.146333 57.455402
Cu 48.711161 61.062766 56.133822
Cu 51.078063 60.329812 55.810076
Cu 50.428868 61.387540 58.221349
Cu 52.768154 60.730846 57.610361
Cu 51.637431 62.664214 56.444128
Cu 55.384417 62.144607 56.090991
Cu 53.735969 63.034384 57.736652
Cu 56.161052 62.939259 58.328787
Cu 56.368065 44.673471 55.263722
Cu 60.260755 46.553735 55.463398
Cu 51.681043 45.256734 56.427684
Cu 54.043480 44.470377 56.154645
Cu 53.362952 45.704074 58.211386
Cu 55.751631 45.786008 57.399280
Cu 55.007877 47.947600 56.381908
Cu 58.088084 45.970368 56.528042
Cu 57.486705 47.010008 58.713946
Cu 59.612710 47.673439 57.580246
Cu 58.535414 49.692458 56.569469
Cu 61.694177 48.397310 56.402379
Cu 61.080402 49.472562 58.582906
Cu 62.687009 50.693925 57.121231
Cu 47.293071 47.640859 56.531705
Cu 49.378191 46.248563 56.592228
Cu 48.965681 48.002684 58.328834
Cu 51.022619 46.569853 58.457063
Cu 50.468373 49.491322 56.993185
Cu 52.556662 47.575331 56.766285
Cu 52.136908 49.874107 58.807851
Cu 54.514134 49.139251 58.532023
Cu 53.627212 51.073566 57.205159
Cu 55.994863 50.311628 56.892083
Cu 55.313359 51.457536 59.030743
Cu 57.682898 50.699517 58.690189
Cu 56.790871 52.641241 57.379104
Cu 60.282721 51.386180 57.197095
Cu 58.488937 53.021316 59.166841
Cu 61.778700 51.829592 59.146758
Cu 59.961937 54.204493 57.533502
Cu 63.419183 53.012485 57.682470
Cu 61.887809 54.340681 59.123690
Cu 63.340634 55.495834 57.454875
Cu 45.439769 51.371109 57.478042
Cu 46.953519 49.497021 58.146665
Cu 47.101761 51.696771 59.307907
Cu 48.575518 49.807061 60.009028
Cu 48.883834 52.621240 57.812144
Cu 51.246909 51.820263 57.520920
Cu 50.568897 52.974813 59.634246
Cu 52.933820 52.200135 59.351257
Cu 52.059286 54.145415 58.004221
Cu 54.425172 53.392471 57.704363
Cu 53.743323 54.541405 59.830822
Cu 56.124281 53.783338 59.516666
Cu 55.223830 55.716506 58.178191
Cu 57.600457 54.969606 57.873176
Cu 56.911288 56.125174 59.975196
Cu 60.497987 55.679055 60.712983
Cu 58.287442 57.453257 58.373966
Cu 61.935197 56.830771 59.034459
Cu 60.010868 58.048979 60.088034
Cu 61.483917 59.207464 58.460222
Cu 45.457266 53.492845 58.797598
Cu 47.251702 53.910963 60.473024
Cu 46.259175 55.828828 59.233170
Cu 48.619827 55.134826 58.776839
Cu 48.051672 56.240799 60.936199
Cu 51.363286 55.293928 60.113636
Cu 50.467018 57.202927 58.777389
Cu 52.852010 56.477775 58.496488
Cu 51.597207 58.556726 61.898523
Cu 54.547183 56.872056 60.289032
Cu 53.671383 58.803635 58.957246
Cu 56.482873 59.007175 59.174655
Cu 55.666400 59.954542 61.342150
Cu 58.054140 59.252330 61.095847
Cu 57.201976 61.289349 59.900490
Cu 59.497551 60.401959 59.400134
Cu 47.234752 58.129661 59.498251
Cu 49.400626 58.345778 60.731929
Cu 48.540773 60.263632 59.412250
Cu 50.762874 60.444155 60.510006
Cu 53.205947 60.223523 60.964222
Cu 52.365084 62.139253 59.619702
Cu 54.796923 61.967347 60.160960
Cu 55.133750 46.784830 59.579443
Cu 58.963398 48.788659 59.696829
Cu 50.629472 48.383319 60.133557
Cu 52.731904 47.028091 60.238535
Cu 52.228859 48.731423 62.000141
Cu 54.552453 48.043932 61.635841
Cu 53.753990 50.224412 60.674249
Cu 56.569101 48.661597 60.332062
Cu 55.756766 50.159413 62.158190
Cu 58.193950 49.763261 61.848143
Cu 57.032803 51.835382 60.819491
Cu 60.235117 50.674643 60.728688
Cu 58.966860 52.028097 62.406903
Cu 60.417011 53.174190 60.749777
Cu 48.776635 52.046631 61.108386
Cu 50.211031 50.151076 61.848574
Cu 50.248642 52.297457 63.088438
Cu 52.398704 51.150902 62.562681
Cu 52.244760 53.388296 61.469523
Cu 54.622068 52.192476 63.037805
Cu 53.636161 54.468962 63.257763
Cu 56.861933 53.284062 62.839663
Cu 55.452531 54.951676 61.624720
Cu 59.004593 54.503509 62.317975
Cu 57.104593 55.698761 63.362922
Cu 58.540849 56.879716 61.715153
Cu 48.999848 54.287676 62.208066
Cu 51.162678 54.555672 63.415980
Cu 50.277848 56.435595 62.056743
Cu 52.447612 56.670173 63.271475
Cu 54.855954 56.559949 63.855167
Cu 54.055963 58.298410 62.280994
Cu 56.516966 58.015570 62.658341
H 59.866876 56.811757 43.676931
H 59.522826 56.400827 44.044714
