371
Generated rotated structure
Cu 50.482620 52.110650 45.529930
Cu 52.083620 50.252690 45.371470
Cu 54.136210 51.658250 45.539660
Cu 56.300690 50.447590 45.540700
Cu 58.139490 52.072050 45.391630
Cu 50.501050 56.336200 45.516660
Cu 51.801340 54.213840 45.498600
Cu 54.215430 56.584790 45.505470
Cu 56.755290 54.141010 45.522670
Cu 58.013170 56.289710 45.524460
Cu 52.229220 58.082080 45.583090
Cu 56.260970 58.001250 45.594260
Cu 49.987360 48.248720 48.547180
Cu 52.088430 47.008810 49.110330
Cu 52.112160 48.752170 47.343240
Cu 54.216700 47.523290 47.908270
Cu 56.338150 46.996940 49.113580
Cu 56.330490 48.737620 47.340610
Cu 58.468720 48.173580 48.506480
Cu 47.018120 52.117130 49.092520
Cu 48.177910 49.974490 48.495440
Cu 48.763430 52.103690 47.323520
Cu 50.016790 50.004460 46.777450
Cu 50.650770 52.431450 48.930620
Cu 52.415550 50.662030 48.925670
Cu 52.386670 52.421550 47.138270
Cu 54.219880 49.220560 46.095390
Cu 54.195160 52.428120 48.880990
Cu 55.973380 50.653840 48.908350
Cu 55.958180 52.385350 47.105990
Cu 58.419580 49.995110 46.771270
Cu 57.740540 52.419000 48.886380
Cu 60.244770 49.941830 48.466600
Cu 59.675180 52.088600 47.338860
Cu 61.426480 52.059620 49.099950
Cu 47.040610 56.383700 49.077920
Cu 47.601770 54.242890 47.915710
Cu 48.785440 56.367760 47.310600
Cu 49.371980 54.229570 46.168060
Cu 50.663720 56.005820 48.919200
Cu 52.420310 54.214790 48.882770
Cu 52.402630 56.007130 47.120810
Cu 54.278440 54.118320 45.178180
Cu 54.205580 55.979890 48.866520
Cu 55.985700 54.205790 48.854940
Cu 56.058270 55.978290 47.071840
Cu 59.194710 54.198150 46.107030
Cu 57.761690 55.990480 48.893740
Cu 60.910350 54.190560 47.905280
Cu 59.699800 56.307900 47.346080
Cu 61.455110 56.311470 49.103630
Cu 48.252950 58.504590 48.486260
Cu 50.060140 58.456410 46.768480
Cu 49.955650 60.364640 48.532450
Cu 52.442350 57.767490 48.894590
Cu 52.091750 59.760880 47.408690
Cu 54.254410 58.661270 46.892840
Cu 54.256260 60.870060 48.037080
Cu 55.977760 57.746610 48.863790
Cu 56.413000 59.821060 47.272710
Cu 58.416520 58.391930 46.818910
Cu 58.551320 60.283370 48.451350
Cu 60.245720 58.437160 48.538570
Cu 52.122300 61.500090 49.174880
Cu 56.423390 61.460070 49.129070
Cu 50.541330 45.549400 52.862090
Cu 52.062200 45.284000 50.901740
Cu 54.203840 45.394770 52.194210
Cu 56.326610 45.256160 50.882370
Cu 57.961190 45.654010 52.703550
Cu 46.596160 48.306420 52.146910
Cu 48.382930 46.573970 52.132510
Cu 48.099740 48.105450 50.170280
Cu 49.934660 46.389710 50.203650
Cu 50.669510 48.917750 52.501330
Cu 52.437380 47.143120 52.509970
Cu 52.412820 48.905050 50.710240
Cu 54.199610 45.835960 49.735610
Cu 54.209180 48.908550 52.455380
Cu 55.974550 47.146900 52.469970
Cu 55.999210 48.908350 50.693200
Cu 58.438120 46.504070 50.381230
Cu 57.756530 48.903280 52.476150
Cu 60.180340 46.649610 52.159610
Cu 60.347480 48.123790 50.165050
Cu 61.816750 48.536630 52.153140
Cu 45.602900 50.516470 52.704030
Cu 45.274930 52.141410 50.859550
Cu 46.468860 50.008820 50.328060
Cu 47.146920 52.464750 52.476430
Cu 48.826780 50.607540 52.590580
Cu 48.917390 52.259700 50.715960
Cu 49.796620 49.928530 50.392170
Cu 50.683300 52.455920 52.465140
Cu 52.446210 50.685980 52.462590
Cu 52.439270 52.447010 50.675550
Cu 54.204310 50.660680 50.669980
Cu 54.216020 52.451190 52.442190
Cu 55.979800 50.681300 52.447900
Cu 55.976580 52.441000 50.657400
Cu 58.570060 49.878530 50.320790
Cu 57.747940 52.445590 52.436690
Cu 59.527630 50.662500 52.479860
Cu 59.503780 52.393660 50.668190
Cu 62.126480 49.890170 50.097040
Cu 61.273940 52.438410 52.449100
Cu 62.922570 50.633660 52.968730
Cu 63.157110 52.022140 50.894440
Cu 45.398530 54.256870 52.182300
Cu 45.319220 56.411270 50.885150
Cu 45.896400 54.268730 49.732440
Cu 47.161550 55.998770 52.489860
Cu 48.915580 54.222790 52.455960
Cu 48.909900 56.009950 50.697270
Cu 50.662820 54.219990 50.671240
Cu 50.688870 55.990650 52.450760
Cu 52.451460 54.221840 52.443240
Cu 52.448490 55.989780 50.662250
Cu 54.212140 54.213260 50.647280
Cu 54.221700 55.986530 52.430790
Cu 55.986390 54.217090 52.427690
Cu 55.983490 55.981190 50.644810
Cu 57.762740 54.204280 50.638840
Cu 57.755280 55.982560 52.423390
Cu 59.522950 54.211450 52.415100
Cu 59.522740 55.996080 50.660730
Cu 62.600050 54.164770 49.732750
Cu 61.297830 55.976130 52.426860
Cu 63.046760 54.181150 52.192100
Cu 63.209520 56.293090 50.858600
Cu 45.517680 57.819540 52.955490
Cu 46.340280 58.544690 50.090830
Cu 46.617230 59.918690 52.144130
Cu 48.920310 57.766850 52.476040
Cu 48.056030 60.355770 50.145140
Cu 49.894010 58.670310 50.361150
Cu 50.600810 59.604320 52.560450
Cu 52.457200 57.754850 52.441460
Cu 52.243360 59.504300 50.678490
Cu 54.222190 57.765060 50.645370
Cu 54.221970 59.525980 52.416160
Cu 55.989800 57.750090 52.427940
Cu 56.183210 59.490560 50.653550
Cu 58.519430 58.635480 50.328440
Cu 57.842550 59.591170 52.525360
Cu 59.534130 57.755070 52.439320
Cu 60.351320 60.331840 50.174190
Cu 61.960610 58.411710 50.367100
Cu 61.855040 60.159680 52.146660
Cu 62.829430 57.936600 52.672640
Cu 48.274970 61.790710 52.157230
Cu 50.003710 62.068100 50.371880
Cu 50.474530 62.807030 52.714100
Cu 52.438860 61.279230 52.441410
Cu 52.155990 63.242690 50.940370
Cu 54.299870 62.538400 49.890570
Cu 54.220590 63.028420 52.353220
Cu 56.005180 61.274680 52.427190
Cu 56.483180 63.186700 50.916110
Cu 58.603350 62.125360 50.130540
Cu 57.866470 62.867740 52.964810
Cu 59.984700 61.804130 52.170920
Cu 50.582330 45.581050 55.483990
Cu 52.652760 45.233370 54.147970
Cu 54.228210 45.420380 56.095580
Cu 55.997950 45.390780 54.242370
Cu 57.974270 45.641770 55.734700
Cu 46.593760 48.289120 56.302140
Cu 48.464100 46.644670 56.277880
Cu 47.100070 47.022260 54.221490
Cu 49.552620 47.429580 54.167730
Cu 50.606250 48.857630 55.923440
Cu 52.443620 47.174110 56.021610
Cu 52.457580 48.930050 54.249570
Cu 54.225020 47.151650 54.260000
Cu 54.226830 48.922820 56.032640
Cu 56.009940 47.169570 56.007390
Cu 55.980850 48.924880 54.232010
Cu 58.959140 47.360800 54.217930
Cu 57.847980 48.844480 55.888350
Cu 60.173840 46.658090 56.291560
Cu 61.445480 47.210300 54.227330
Cu 61.831570 48.530110 56.304670
Cu 45.619370 50.512200 55.776160
Cu 45.385220 52.466230 54.248030
Cu 47.296080 49.504890 54.231480
Cu 47.150970 52.472670 56.021950
Cu 48.914660 50.693730 56.009480
Cu 48.921620 52.467370 54.250420
Cu 50.688450 50.700170 54.248850
Cu 50.693520 52.466240 56.025410
Cu 52.459000 50.698710 56.020860
Cu 52.458090 52.461490 54.237020
Cu 54.220550 50.692840 54.234990
Cu 54.227100 52.462270 56.018010
Cu 55.991600 50.693950 56.007350
Cu 55.986000 52.458410 54.222660
Cu 57.747090 50.691230 54.221890
Cu 57.759930 52.458150 55.998040
Cu 59.528490 50.681950 55.972760
Cu 59.512780 52.458740 54.212380
Cu 61.005840 49.660360 54.233400
Cu 61.287250 52.450030 55.958930
Cu 62.931120 50.629260 55.493310
Cu 63.295390 52.749120 54.233950
Cu 45.402030 54.267650 56.256710
Cu 45.153410 55.699680 54.214850
Cu 47.156310 54.227890 54.248820
Cu 47.174870 56.010400 55.999700
Cu 48.925860 54.237350 56.033700
Cu 48.936020 55.990060 54.236420
Cu 50.694630 54.226520 54.238680
Cu 50.700860 56.003200 56.012110
Cu 52.462410 54.231710 56.021110
Cu 52.462800 55.990390 54.226140
Cu 54.224400 54.224400 54.224400
Cu 54.232780 55.997600 56.006610
Cu 55.997340 54.226960 56.005550
Cu 55.990710 55.987320 54.211780
Cu 57.754170 54.222280 54.210120
Cu 57.765500 55.992880 55.983660
Cu 59.533230 54.226020 55.992840
Cu 59.527180 55.981430 54.198380
Cu 61.292490 54.220910 54.199970
Cu 61.301880 55.984050 55.972370
Cu 63.050270 54.191930 56.266500
Cu 63.063580 55.982570 54.200770
Cu 45.526230 57.815140 55.480070
Cu 47.442960 58.788450 54.215400
Cu 46.632050 59.912170 56.295660
Cu 48.921170 57.786300 55.968940
Cu 47.003320 61.238500 54.221470
Cu 50.701710 57.757570 54.226910
Cu 50.692270 59.545530 55.972650
Cu 52.468990 57.767500 56.000910
Cu 52.467960 59.523920 54.216800
Cu 54.228250 57.755960 54.213810
Cu 54.239620 59.540250 55.993420
Cu 56.002590 57.762820 55.986210
Cu 55.991220 59.518750 54.199230
Cu 57.760350 57.748630 54.199950
Cu 57.779290 59.531050 55.947470
Cu 59.622030 57.841260 55.858220
Cu 61.348740 61.426540 54.227310
Cu 61.152710 58.943910 54.217320
Cu 61.852630 60.142380 56.301900
Cu 62.845900 57.932330 55.744770
Cu 48.268460 61.799190 56.289200
Cu 49.489650 61.088000 54.230870
Cu 50.487610 62.794800 55.745250
Cu 52.474250 61.301900 55.978830
Cu 52.450850 63.058020 54.206430
Cu 54.223780 61.297150 54.188810
Cu 54.244960 63.054030 56.254580
Cu 56.011420 61.305680 55.938820
Cu 55.796040 63.215430 54.300830
Cu 58.896180 61.019220 54.281070
Cu 57.907470 62.899390 55.586710
Cu 60.065870 61.874830 56.316290
Cu 51.965620 45.262100 57.532690
Cu 56.292810 45.206110 57.508430
Cu 48.097480 48.116960 58.274610
Cu 49.845450 46.323440 58.318260
Cu 49.897480 48.165430 59.997450
Cu 52.025410 46.988730 59.319730
Cu 52.265590 48.958240 57.795250
Cu 54.148940 45.910400 58.558230
Cu 54.192540 47.578740 60.411720
Cu 56.326500 46.948710 59.273920
Cu 56.205440 48.944500 57.770310
Cu 58.445090 46.380700 58.076920
Cu 58.493140 48.084160 59.916350
Cu 60.392760 48.093030 58.303660
Cu 45.239290 52.155710 57.590200
Cu 46.488190 50.037090 58.081700
Cu 46.993700 52.137330 59.345170
Cu 48.203080 50.011640 59.910220
Cu 48.926070 52.452720 57.788070
Cu 49.929370 49.813320 58.120360
Cu 50.687110 52.458320 59.555060
Cu 52.471040 50.702190 59.585010
Cu 52.465310 52.467610 57.803990
Cu 54.226610 50.683750 57.803420
Cu 54.243220 52.468910 59.582280
Cu 56.006450 50.681310 59.554210
Cu 56.000310 52.459030 57.786550
Cu 58.554790 49.778490 58.087650
Cu 57.785080 52.442990 59.529600
Cu 60.195850 49.944210 59.962540
Cu 59.538900 52.438850 57.751530
Cu 62.108520 49.904110 58.357970
Cu 61.408190 52.065100 59.370880
Cu 63.129580 52.037530 57.563650
Cu 45.291690 56.426660 57.554360
Cu 45.848750 54.284030 58.716050
Cu 47.022320 56.389180 59.348850
Cu 47.538450 54.258240 60.543520
Cu 48.945020 56.055140 57.780610
Cu 50.686070 54.244510 57.809970
Cu 50.708260 56.029800 59.562420
Cu 52.463100 54.243010 59.593860
Cu 52.472220 56.007800 57.791400
Cu 54.236660 54.235540 57.801520
Cu 54.253640 56.020680 59.567810
Cu 56.028500 54.234010 59.566030
Cu 56.009530 56.001790 57.773250
Cu 57.785980 54.228810 57.777560
Cu 57.798030 56.017350 59.518180
Cu 60.847030 54.205910 60.533090
Cu 59.531410 56.189100 57.732840
Cu 62.552400 54.180080 58.716360
Cu 61.430680 56.331670 59.356280
Cu 63.173870 56.307390 57.589240
Cu 46.322320 58.558620 58.351760
Cu 48.204040 58.506970 59.982200
Cu 48.101320 60.325010 58.283750
Cu 49.878740 58.570280 58.128010
Cu 49.980080 60.275220 59.942320
Cu 52.475430 57.794960 59.540450
Cu 52.449580 59.540460 57.755600
Cu 54.244490 57.788120 57.778820
Cu 54.232100 60.925510 60.540530
Cu 56.033250 57.786770 59.523130
Cu 56.035980 59.543750 57.738560
Cu 58.652180 58.520270 58.056620
Cu 58.461440 60.200080 59.901620
Cu 60.270890 58.474310 59.953360
Cu 60.349060 60.343350 58.278520
Cu 61.979940 58.439980 58.120740
Cu 50.010680 61.944720 58.067570
Cu 52.110640 61.451860 59.335220
Cu 52.122190 63.192640 57.566430
Cu 54.249190 62.612830 58.713200
Cu 56.360370 61.439990 59.338470
Cu 56.386600 63.164800 57.547060
Cu 58.514140 62.059090 58.245150
Cu 52.035800 48.627740 61.176090
Cu 56.357050 48.687930 61.040110
Cu 48.749000 52.140900 61.102730
Cu 50.032280 50.056870 61.629890
Cu 50.435630 52.159090 62.924350
Cu 52.187830 50.447550 62.854540
Cu 52.390530 52.470510 61.376960
Cu 54.194390 49.787530 61.555960
Cu 54.233370 51.864010 62.943330
Cu 56.219580 50.366720 62.865710
Cu 56.046170 52.441670 61.327990
Cu 58.388660 49.992390 61.680330
Cu 57.947750 52.112600 62.932140
Cu 59.663360 52.081050 61.138200
Cu 48.773620 56.360200 61.109940
Cu 49.254090 54.250640 62.341770
Cu 50.309310 56.376750 63.057170
Cu 51.693510 54.307790 62.926130
Cu 52.490620 56.063450 61.342810
Cu 54.170360 54.330490 63.270610
Cu 54.312590 56.790550 62.909140
Cu 56.647460 54.234950 62.950200
Cu 56.062130 56.027250 61.310540
Cu 59.076820 54.219230 62.280750
Cu 57.966180 56.338150 62.918870
Cu 59.685370 56.345110 61.125280
Cu 50.029220 58.453690 61.677540
Cu 52.148110 58.001210 62.908100
Cu 52.118310 59.711180 61.108190
Cu 54.228920 59.228240 62.353410
Cu 56.365180 58.196110 63.077330
Cu 56.336640 59.696630 61.105560
Cu 58.432010 58.444340 61.671350
H 59.856710 51.565050 43.682170
H 59.386510 51.446330 44.114970
