371
Generated rotated structure
Cu 49.793821 48.216621 48.049223
Cu 51.417208 46.485220 48.687339
Cu 53.443804 47.743826 47.962197
Cu 55.627396 46.641217 48.370667
Cu 57.408410 47.938993 47.281612
Cu 49.713921 51.886273 45.955647
Cu 51.056123 50.000857 46.871722
Cu 53.406516 52.011706 45.500073
Cu 55.993706 49.835501 46.496981
Cu 57.197254 51.677040 45.331054
Cu 51.400733 53.398341 45.003074
Cu 55.418925 53.240865 44.701415
Cu 49.652094 46.353338 52.606818
Cu 51.822161 45.503494 53.522014
Cu 51.651836 46.149790 51.131247
Cu 53.825269 45.310390 52.042339
Cu 56.055163 45.397111 53.160560
Cu 55.853125 46.038902 50.768755
Cu 58.097161 46.073025 51.869916
Cu 46.653524 50.055936 51.433052
Cu 47.805836 47.871018 51.869902
Cu 48.237985 49.133157 49.755670
Cu 49.486931 47.008975 50.207173
Cu 50.250085 50.166234 50.821714
Cu 52.047921 48.583689 51.534917
Cu 51.823059 49.235255 49.123187
Cu 53.631549 45.894511 49.636399
Cu 53.775823 50.057454 50.471689
Cu 55.589969 48.486279 51.214095
Cu 55.378073 49.105794 48.802009
Cu 57.855243 46.804707 49.474618
Cu 57.307471 49.970703 50.172076
Cu 59.821886 47.551115 50.810092
Cu 59.107064 48.876836 48.826070
Cu 61.005287 49.678462 50.212964
Cu 46.576608 53.760531 49.317775
Cu 47.083464 51.312716 49.316442
Cu 48.160795 52.836415 47.643120
Cu 48.694580 50.399981 47.655322
Cu 50.179852 53.270338 49.050831
Cu 51.967286 51.653679 49.748125
Cu 51.755040 52.346070 47.341292
Cu 53.497443 49.703063 46.425527
Cu 53.703323 53.140450 48.709512
Cu 55.515966 51.550216 49.417941
Cu 55.392219 52.212862 46.994709
Cu 58.472790 50.116876 46.762467
Cu 57.247106 53.081350 48.418166
Cu 60.338242 50.956228 48.174117
Cu 59.035257 52.550997 46.752777
Cu 60.936417 53.379109 48.120231
Cu 47.683756 55.286730 47.655564
Cu 49.335104 54.357521 46.034255
Cu 49.340815 56.888756 46.631468
Cu 51.908627 54.750161 48.007246
Cu 51.384237 55.761054 45.769494
Cu 53.518449 54.500616 45.675807
Cu 53.569188 56.985794 45.579074
Cu 55.427464 54.635588 47.682950
Cu 55.674697 55.647166 45.245760
Cu 57.663392 54.134224 45.381911
Cu 57.896351 56.580592 45.852642
Cu 59.633884 54.978230 46.689604
Cu 51.528516 58.143217 46.440087
Cu 55.809054 57.987005 46.045532
Cu 50.641630 46.116431 57.624422
Cu 51.991688 44.885370 55.924927
Cu 54.234640 45.568893 56.803183
Cu 56.237717 44.753616 55.550467
Cu 58.015119 45.958891 56.789414
Cu 46.586856 48.253821 55.991209
Cu 48.404919 46.698284 56.676111
Cu 47.916796 47.071200 54.247398
Cu 49.786590 45.552617 54.961249
Cu 50.660468 48.866631 55.642402
Cu 52.462684 47.286173 56.369670
Cu 52.240996 47.933666 53.945699
Cu 54.006167 44.742357 54.457118
Cu 54.181960 48.754664 55.298864
Cu 55.981906 47.188486 56.025112
Cu 55.811248 47.845735 53.616975
Cu 58.268324 45.544150 54.318157
Cu 57.716821 48.678789 55.010504
Cu 60.154999 46.506345 55.634890
Cu 60.113875 46.803139 53.167172
Cu 61.740831 48.107434 54.557683
Cu 45.595368 50.473889 55.472060
Cu 45.070754 50.987128 53.103207
Cu 46.262548 48.842464 53.588938
Cu 47.068520 52.021528 54.181234
Cu 48.794171 50.423188 55.048200
Cu 48.683185 50.935652 52.603388
Cu 49.584210 48.727700 53.394172
Cu 50.589746 51.927023 53.867817
Cu 52.385940 50.345250 54.583517
Cu 52.182926 50.997803 52.169445
Cu 53.981355 49.400233 52.890414
Cu 54.106216 51.830429 53.542603
Cu 55.903995 50.252746 54.265356
Cu 55.704415 50.902353 51.848618
Cu 58.316921 48.447444 52.592886
Cu 57.623430 51.741687 53.232999
Cu 59.440619 50.170597 53.993306
Cu 59.219305 50.785423 51.574083
Cu 61.839131 48.265684 52.083649
Cu 61.136343 51.660525 52.940198
Cu 62.864999 50.308189 54.135211
Cu 62.886027 50.489612 51.634770
Cu 45.260439 53.476193 53.196417
Cu 45.018975 54.713877 51.019226
Cu 45.542652 52.268867 51.025576
Cu 47.003051 55.102720 52.451592
Cu 48.787810 53.500460 53.143889
Cu 48.587919 54.189678 50.741394
Cu 50.372579 52.579155 51.447486
Cu 50.512815 54.995348 52.114531
Cu 52.308232 53.412119 52.825398
Cu 52.109540 54.073572 50.412817
Cu 53.905540 52.479941 51.120936
Cu 54.029641 54.900749 51.791587
Cu 55.827548 53.319100 52.506410
Cu 55.628850 53.976279 50.094076
Cu 57.441180 52.386382 50.808823
Cu 57.548305 54.812453 51.479390
Cu 59.348766 53.226726 52.190281
Cu 59.154758 53.915744 49.792295
Cu 62.180823 51.794728 49.622293
Cu 61.076905 54.727162 51.177037
Cu 62.839528 53.009592 51.705183
Cu 62.836960 54.186873 49.496336
Cu 45.364575 56.953985 52.101537
Cu 45.917682 56.155593 49.191995
Cu 46.340757 58.355689 50.269587
Cu 48.712830 56.593889 51.415925
Cu 47.589571 57.718709 48.197906
Cu 49.477623 56.316326 49.054752
Cu 50.351627 58.195597 50.437979
Cu 52.232608 56.485148 51.083855
Cu 51.825897 57.144230 48.714349
Cu 53.833766 55.569156 49.369654
Cu 53.947302 57.973181 50.036222
Cu 55.749780 56.393173 50.766833
Cu 55.747876 57.029461 48.356389
Cu 58.065935 56.071710 48.292377
Cu 57.561177 58.000469 49.783375
Cu 59.280580 56.321663 50.465557
Cu 59.837964 57.429655 47.164037
Cu 61.501637 55.816969 48.136336
Cu 61.511313 58.216464 48.826050
Cu 62.578635 56.518764 50.291250
Cu 47.949882 59.952871 49.214856
Cu 49.509733 59.275471 47.381566
Cu 50.165646 61.060796 49.005166
Cu 52.133350 59.552073 49.350157
Cu 51.675784 60.527913 47.108131
Cu 53.735706 59.348976 46.359027
Cu 53.859962 60.989662 48.257384
Cu 55.684040 59.459161 49.029488
Cu 55.984559 60.367816 46.737829
Cu 58.052084 59.008854 46.395416
Cu 57.547979 61.067197 48.548625
Cu 59.612900 59.702208 48.200293
Cu 50.910080 47.433938 59.875900
Cu 52.863728 46.426050 58.709740
Cu 54.598096 47.511481 60.167137
Cu 56.199925 46.532619 58.422655
Cu 58.292413 47.440347 59.419354
Cu 46.946746 50.284679 59.598471
Cu 48.845159 48.798935 60.224227
Cu 47.298904 48.146340 58.376227
Cu 49.727443 48.417918 57.915528
Cu 50.896881 50.500674 58.641146
Cu 52.774019 49.041973 59.395038
Cu 52.593243 49.697003 56.994641
Cu 54.395274 48.114155 57.725353
Cu 54.510757 50.527963 58.388299
Cu 56.324709 48.949071 59.074364
Cu 56.100782 49.602897 56.675134
Cu 59.101681 48.166635 57.173644
Cu 58.106422 50.305546 57.986542
Cu 60.508186 48.548267 59.209655
Cu 61.582192 47.983180 57.039346
Cu 62.117302 50.145454 58.154933
Cu 45.879424 51.982380 58.133271
Cu 45.468237 52.935557 55.868184
Cu 47.437938 50.306866 57.145468
Cu 47.381155 53.773986 57.247492
Cu 49.177468 52.179480 57.958965
Cu 48.990445 52.856462 55.561704
Cu 50.790565 51.277465 56.276562
Cu 50.909754 53.688690 56.945130
Cu 52.708278 52.107970 57.657688
Cu 52.511508 52.763483 55.245000
Cu 54.307270 51.183099 55.960554
Cu 54.428418 53.600394 56.632934
Cu 56.225452 52.016000 57.340674
Cu 56.023899 52.672664 54.926831
Cu 57.818372 51.094211 55.642872
Cu 57.945244 53.505795 56.309990
Cu 59.745229 51.907254 57.008595
Cu 59.535440 52.586847 54.610615
Cu 61.088567 50.128044 55.876588
Cu 61.455007 53.398418 55.972920
Cu 63.093483 51.547158 56.322983
Cu 63.297881 52.763203 54.156894
Cu 45.618522 55.491556 56.719347
Cu 45.160178 55.737940 54.267627
Cu 47.191716 54.428051 54.847257
Cu 47.321725 56.840626 55.484317
Cu 49.109302 55.274417 56.234239
Cu 48.922618 55.914296 53.813906
Cu 50.714802 54.340558 54.530994
Cu 50.834629 56.759447 55.191527
Cu 52.630511 55.182043 55.918111
Cu 52.434160 55.828479 53.497690
Cu 54.229029 54.250572 54.212260
Cu 54.351843 56.670706 54.881923
Cu 56.149826 55.089019 55.599114
Cu 55.946550 55.737669 53.179516
Cu 57.743257 54.160585 53.893526
Cu 57.868313 56.574120 54.556703
Cu 59.670258 55.000692 55.280625
Cu 59.467614 55.644681 52.862816
Cu 61.266342 54.073087 53.577255
Cu 61.389539 56.479615 54.243287
Cu 63.197619 55.024950 55.228104
Cu 62.989821 55.565586 52.556336
Cu 45.593060 58.192954 54.289309
Cu 47.369492 58.373107 52.547928
Cu 46.717227 60.393709 53.866837
Cu 49.017439 58.330546 54.431214
Cu 46.875867 60.517963 51.385174
Cu 50.639687 57.406932 52.781648
Cu 50.741238 59.822362 53.414012
Cu 52.554055 58.248402 54.159174
Cu 52.357288 58.898251 51.749394
Cu 54.150789 57.318044 52.463966
Cu 54.276099 59.746479 53.125656
Cu 56.072119 58.155893 53.841003
Cu 55.864816 58.804140 51.429879
Cu 57.667493 57.223678 52.147958
Cu 57.797591 59.634512 52.782119
Cu 59.663898 58.077955 53.376320
Cu 61.159165 60.354803 50.048293
Cu 61.020111 58.194277 51.279053
Cu 61.871194 60.247328 52.433321
Cu 62.862691 58.027254 52.952460
Cu 48.303061 61.994802 52.789639
Cu 49.356368 60.334508 51.250878
Cu 50.442939 62.542261 51.635102
Cu 52.476153 61.312657 52.399409
Cu 52.258134 61.968524 50.001866
Cu 54.062786 60.386993 50.699176
Cu 54.223418 62.932246 51.621329
Cu 55.995374 61.214965 52.054842
Cu 55.594331 62.075094 49.714781
Cu 58.730616 60.083225 50.508993
Cu 57.816429 62.384703 50.800103
Cu 60.053139 61.802859 51.748410
Cu 52.473500 48.133327 61.686692
Cu 56.782275 47.973230 61.316390
Cu 48.620094 51.071489 61.260484
Cu 50.405975 49.492289 62.029105
Cu 50.561708 51.920551 62.571879
Cu 52.649005 50.514138 62.378989
Cu 52.710182 51.471682 60.068131
Cu 54.722363 49.152167 62.065493
Cu 54.888871 51.515349 62.845447
Cu 56.929542 50.357926 61.984434
Cu 56.632162 51.356913 59.710172
Cu 58.948325 49.225672 61.042955
Cu 59.117234 51.612387 61.793053
Cu 60.868478 50.782434 60.226616
Cu 45.621109 54.314270 58.928184
Cu 46.956422 52.684174 60.288184
Cu 47.521652 55.122034 60.304289
Cu 48.824174 53.522908 61.734908
Cu 49.303311 54.585399 58.632224
Cu 50.392124 52.429433 60.132144
Cu 51.210953 55.419793 60.006355
Cu 53.030595 53.865555 60.741570
Cu 52.829209 54.524864 58.330444
Cu 54.624292 52.931991 59.054853
Cu 54.754736 55.360693 59.715009
Cu 56.549432 53.750982 60.417275
Cu 56.348519 54.427580 58.011699
Cu 58.980435 52.184817 59.369769
Cu 58.278207 55.230814 59.373684
Cu 60.774303 53.214413 60.768956
Cu 59.870139 54.311465 57.683127
Cu 62.540376 52.345550 59.232525
Cu 61.881450 54.740612 59.106745
Cu 63.439084 53.787266 57.405295
Cu 45.572031 58.011531 56.789751
Cu 46.277236 56.706415 58.802228
Cu 47.452772 58.822681 58.211556
Cu 48.119816 57.544915 60.250403
Cu 49.238753 57.715720 56.850438
Cu 51.016890 56.114757 57.615710
Cu 51.150588 58.530441 58.252444
Cu 52.942092 56.950927 59.006580
Cu 52.753644 57.598790 56.575903
Cu 54.552518 56.021202 57.303585
Cu 54.682236 58.443689 57.952832
Cu 56.490783 56.847464 58.676395
Cu 56.275133 57.503340 56.255076
Cu 58.085479 55.921989 56.977034
Cu 58.207973 58.334909 57.602806
Cu 61.374595 57.188427 59.108078
Cu 59.774874 57.565491 55.821133
Cu 62.915406 56.232285 57.398939
Cu 61.804535 58.445207 56.991468
Cu 63.387304 57.514010 55.321305
Cu 46.618928 60.235451 56.340876
Cu 48.636183 60.950028 57.614428
Cu 48.344183 61.698004 55.257349
Cu 50.141137 60.053707 55.831630
Cu 50.360897 62.428118 56.554604
Cu 52.868100 60.014864 57.210425
Cu 52.646800 60.655417 54.807542
Cu 54.476704 59.100910 55.534107
Cu 54.632790 63.190753 56.382182
Cu 56.410138 59.917454 56.889604
Cu 56.217063 60.567477 54.478822
Cu 58.873848 59.773438 55.030340
Cu 58.805965 62.147805 55.817703
Cu 60.652223 60.630125 56.554619
Cu 60.541263 61.429943 54.177122
Cu 62.195511 59.658679 54.835583
Cu 50.189735 62.956984 54.106369
Cu 52.402886 63.104032 55.263961
Cu 52.220342 63.747527 52.874053
Cu 54.451893 63.758783 53.967416
Cu 56.635898 62.997649 54.902507
Cu 56.466371 63.615773 52.499594
Cu 58.671469 62.948526 53.463272
Cu 52.783362 52.853977 63.178761
Cu 57.073821 52.740098 62.655022
Cu 49.422803 55.950151 61.671752
Cu 50.794667 54.366920 63.042610
Cu 51.260806 56.824108 63.093475
Cu 53.039134 55.260278 63.723105
Cu 53.065840 56.288281 61.429812
Cu 54.939610 54.000527 62.748714
Cu 55.051543 56.489437 62.924448
Cu 57.057326 55.102802 63.421447
Cu 56.703019 56.155073 61.083229
Cu 59.122955 54.143627 62.390274
Cu 58.744138 56.614870 62.468873
Cu 60.297264 55.664737 60.781395
Cu 49.350995 59.624307 59.598451
Cu 49.985269 58.384258 61.662059
Cu 51.049648 60.562150 61.142908
Cu 52.464353 58.665642 61.927540
Cu 53.079986 59.395349 59.622512
Cu 54.960614 58.798084 61.998980
Cu 55.014255 60.757317 60.462324
Cu 57.401936 58.500277 61.552804
Cu 56.635000 59.265893 59.301343
Cu 59.763480 58.101167 60.769208
Cu 58.664238 60.284522 60.375298
Cu 60.220074 59.367986 58.668851
Cu 50.602817 61.696441 58.949912
Cu 52.830663 61.859926 60.053853
Cu 52.604934 62.462241 57.655766
Cu 54.826510 62.606632 58.788121
Cu 57.040851 62.015923 59.737182
Cu 56.806223 62.351353 57.293273
Cu 58.971128 61.492168 58.217347
H 58.981422 46.616733 45.901247
H 58.553555 46.737333 46.375465
