179
Generated rotated structure
Cu 56.249551 50.874260 47.879771
Cu 51.505385 52.347312 48.467700
Cu 53.878758 51.598880 48.157929
Cu 53.000156 53.547445 46.870431
Cu 54.684888 53.925764 48.664080
Cu 57.066535 53.183411 48.352488
Cu 56.169722 55.122898 47.063843
Cu 57.863052 55.507473 48.855674
Cu 49.153402 53.106519 48.804688
Cu 49.923179 55.430368 49.283211
Cu 52.300776 54.676551 48.975585
Cu 51.426019 56.614696 47.681723
Cu 53.796204 55.875794 47.343097
Cu 53.101631 57.010808 49.480077
Cu 55.485842 56.259698 49.169940
Cu 54.595603 58.190134 47.875140
Cu 56.280856 58.590496 49.671114
Cu 58.635589 57.819746 49.383274
Cu 50.719699 57.754482 49.786121
Cu 51.539433 60.052192 50.307341
Cu 53.907464 59.338998 49.980626
Cu 53.274032 48.465042 51.100879
Cu 55.644538 47.744566 50.807591
Cu 54.762986 49.659599 49.473371
Cu 56.451743 50.048384 51.294674
Cu 58.813848 49.319864 51.000960
Cu 57.949980 51.243674 49.667784
Cu 59.632478 51.625554 51.488820
Cu 48.549715 49.977505 51.731812
Cu 50.903130 49.212329 51.409162
Cu 50.018463 51.153921 50.092735
Cu 52.388220 50.401654 49.778353
Cu 51.701407 51.538786 51.916796
Cu 54.074098 50.791048 51.606701
Cu 53.189779 52.732433 50.290288
Cu 55.565475 51.991703 49.988036
Cu 54.875457 53.118842 52.114693
Cu 57.255183 52.372222 51.800794
Cu 56.370240 54.313311 50.484377
Cu 58.752859 53.565228 50.166688
Cu 58.051803 54.695276 52.304281
Cu 60.428548 53.947006 51.990356
Cu 59.543734 55.888535 50.673923
Cu 61.198606 56.264702 52.503600
Cu 46.975413 53.045035 52.543169
Cu 49.326485 52.290854 52.224527
Cu 48.435781 54.237742 50.908360
Cu 50.819872 53.485091 50.606871
Cu 50.121576 54.617156 52.731017
Cu 52.500651 53.866924 52.424401
Cu 51.609682 55.811339 51.104672
Cu 53.989819 55.062899 50.792080
Cu 53.298324 56.191952 52.927533
Cu 55.673131 55.443826 52.617990
Cu 54.790137 57.392232 51.298733
Cu 57.160701 56.636847 50.993778
Cu 56.471986 57.773639 53.118511
Cu 58.846590 57.022824 52.805423
Cu 57.961096 58.972305 51.489606
Cu 59.624309 59.332195 53.314978
Cu 47.744364 55.367282 53.037103
Cu 49.226245 56.562836 51.407952
Cu 48.540582 57.688312 53.540393
Cu 50.918151 56.940501 53.233228
Cu 50.029501 58.882957 51.912917
Cu 52.415058 58.130424 51.611733
Cu 51.721192 59.265911 53.732713
Cu 54.099220 58.521685 53.427334
Cu 53.216484 60.467023 52.107391
Cu 55.590897 59.726355 51.796345
Cu 54.899036 60.848799 53.928399
Cu 57.269822 60.101915 53.618366
Cu 49.360218 59.989726 54.046410
Cu 52.529542 61.565014 54.239806
Cu 51.797356 47.303493 52.742362
Cu 53.468336 47.649227 54.562368
Cu 55.837829 46.933012 54.250961
Cu 54.955638 48.848653 52.929226
Cu 57.338704 48.101368 52.619345
Cu 56.646180 49.232115 54.758054
Cu 59.007154 48.508300 54.444358
Cu 58.141951 50.432409 53.123654
Cu 59.826790 50.809714 54.950374
Cu 61.280025 52.016920 53.320948
Cu 48.743062 49.165831 55.175789
Cu 51.097550 48.396111 54.872401
Cu 50.214674 50.340888 53.547055
Cu 52.588173 49.603847 53.240126
Cu 51.895386 50.724387 55.372257
Cu 54.268152 49.976340 55.063433
Cu 53.385950 51.924029 53.742183
Cu 55.763046 51.171607 53.431406
Cu 55.069047 52.306074 55.563234
Cu 57.449220 51.557525 55.257539
Cu 56.558537 53.500965 53.935763
Cu 58.929457 52.755811 53.627046
Cu 58.245796 53.880870 55.759750
Cu 60.623008 53.130744 55.453665
Cu 59.735409 55.073202 54.128007
Cu 61.391959 55.452991 55.947598
Cu 47.830384 51.091079 53.857721
Cu 47.168766 52.233324 55.987167
Cu 49.520782 51.475202 55.685344
Cu 48.631963 53.424824 54.362760
Cu 51.006735 52.669910 54.051527
Cu 50.315569 53.802750 56.186486
Cu 52.694241 53.054200 55.872777
Cu 51.808835 54.997061 54.555004
Cu 54.183686 54.249013 54.245384
Cu 53.491915 55.379184 56.376074
Cu 55.866721 54.631102 56.066366
Cu 54.981422 56.573997 54.748585
Cu 57.360637 55.828116 54.439240
Cu 56.665965 56.959240 56.573971
Cu 59.040887 56.207172 56.266240
Cu 58.152698 58.157138 54.943712
Cu 60.536988 57.406947 54.633047
Cu 59.817657 58.520521 56.758955
Cu 47.938824 54.551020 56.500411
Cu 47.087347 56.481106 55.169819
Cu 49.437915 55.742215 54.863721
Cu 48.734894 56.872472 57.001947
Cu 51.112189 56.125804 56.689974
Cu 50.225421 58.065617 55.367113
Cu 52.604326 57.326419 55.059361
Cu 51.915629 58.449642 57.196093
Cu 54.293274 57.706978 56.884066
Cu 53.411734 59.649373 55.561541
Cu 55.779199 58.894179 55.250641
Cu 55.093340 60.032984 57.389888
Cu 57.464242 59.285697 57.081605
Cu 56.570016 61.194533 55.748405
Cu 49.553524 59.178162 57.489807
Cu 51.028668 60.396658 55.871422
Cu 52.722834 60.753460 57.683176
Cu 55.150887 48.031003 56.383376
Cu 56.827939 48.445834 58.183427
Cu 58.337871 49.615069 56.577850
Cu 50.406276 49.525721 57.001162
Cu 52.776475 48.771671 56.694422
Cu 52.086516 49.907530 58.819653
Cu 54.459908 49.159028 58.510141
Cu 53.577235 51.105794 57.192034
Cu 55.952314 50.367602 56.879034
Cu 55.265741 51.487218 59.010690
Cu 57.647673 50.743544 58.704647
Cu 56.757690 52.686687 57.386095
Cu 59.141126 51.935190 57.082815
Cu 58.444193 53.067658 59.207556
Cu 59.931591 54.260284 57.582407
Cu 49.731783 50.678280 59.107493
Cu 48.823638 52.609491 57.816844
Cu 51.206671 51.861179 57.496989
Cu 50.504320 52.990553 59.635093
Cu 52.881530 52.238328 59.320827
Cu 51.997132 54.184715 58.006390
Cu 54.377552 53.435127 57.698687
Cu 53.682484 54.572262 59.826687
Cu 56.066596 53.821475 59.515182
Cu 55.177593 55.765593 58.200479
Cu 57.547500 55.012934 57.883896
Cu 56.861987 56.150714 60.023067
Cu 59.213970 55.391507 59.686079
Cu 58.348908 57.344105 58.398032
Cu 49.614513 54.932798 58.324079
Cu 51.300837 55.314615 60.138279
Cu 50.417392 57.254352 58.822983
Cu 52.801897 56.506323 58.502731
Cu 52.117821 57.623766 60.610996
Cu 54.488613 56.899146 60.332839
Cu 53.604386 58.838427 59.017396
Cu 55.979152 58.096372 58.712414
Cu 53.771769 50.307892 60.615627
Cu 56.941353 51.883330 60.809044
Cu 52.197650 53.375128 61.426924
Cu 54.571168 52.622232 61.147670
Cu 55.367215 54.950581 61.620336
H 51.172492 45.642446 52.355267
H 50.591299 45.353557 52.319805
