179
Generated rotated structure
Cu 57.076718 50.904625 48.200338
Cu 53.231994 54.065877 47.703116
Cu 55.156933 52.475294 47.934771
Cu 55.502960 54.720985 46.903445
Cu 56.477669 54.240298 49.143424
Cu 58.412538 52.652184 49.377080
Cu 58.739971 54.896844 48.337475
Cu 59.724954 54.418661 50.579589
Cu 51.319918 55.655416 47.505341
Cu 52.617510 57.434472 48.677102
Cu 54.543553 55.837104 48.910807
Cu 54.891604 58.072331 47.872391
Cu 56.827065 56.494351 48.078278
Cu 55.862776 57.611080 50.117992
Cu 57.796391 56.013814 50.351845
Cu 58.128623 58.248169 49.306427
Cu 59.110492 57.787227 51.553505
Cu 61.003903 56.181566 51.795416
Cu 53.930042 59.201020 49.879366
Cu 55.247456 60.932608 51.099663
Cu 57.185651 59.377906 51.321617
Cu 52.534715 49.578277 49.826560
Cu 54.460937 48.012891 50.078828
Cu 54.809241 50.233332 48.995797
Cu 55.781393 49.758112 51.265001
Cu 57.697686 48.188714 51.512711
Cu 58.064059 50.410126 50.437646
Cu 59.028486 49.931078 52.703302
Cu 48.705769 52.763845 49.383710
Cu 50.612063 51.166977 49.593979
Cu 50.960501 53.411315 48.532409
Cu 52.882582 51.819068 48.757891
Cu 51.925280 52.934546 50.801662
Cu 53.849972 51.344895 51.032970
Cu 54.198639 53.588906 49.971469
Cu 56.125611 52.003768 50.212476
Cu 55.166212 53.112441 52.242164
Cu 57.098754 51.521391 52.472190
Cu 57.446776 53.765377 51.410441
Cu 59.382666 52.172196 51.637447
Cu 58.410810 53.286877 53.674791
Cu 60.340196 51.695493 53.903577
Cu 60.688487 53.939833 52.841945
Cu 61.623833 53.465644 55.106475
Cu 48.094340 56.115506 50.352729
Cu 50.000940 54.529251 50.568447
Cu 50.345823 56.780786 49.506531
Cu 52.275794 55.181370 49.748081
Cu 51.311722 56.298036 51.774112
Cu 53.239925 54.703274 52.009961
Cu 53.584975 56.952977 50.944110
Cu 55.516800 55.359980 51.175079
Cu 54.553698 56.470184 53.212963
Cu 56.479913 54.879296 53.445310
Cu 56.833122 57.129467 52.383059
Cu 58.751559 55.533190 52.616891
Cu 57.797259 56.650355 54.647252
Cu 59.723615 55.057411 54.875651
Cu 60.073809 57.309235 53.816122
Cu 61.012390 56.817267 56.075507
Cu 49.385294 57.892017 51.538282
Cu 51.654558 58.550917 50.704168
Cu 50.696377 59.655828 52.740144
Cu 52.624283 58.063923 52.975573
Cu 52.970892 60.310974 51.909422
Cu 54.902077 58.711060 52.151704
Cu 53.944144 59.829403 54.176799
Cu 55.873049 58.240434 54.414803
Cu 56.225676 60.487759 53.351321
Cu 58.154614 58.903984 53.583771
Cu 57.190124 60.008596 55.616945
Cu 59.113423 58.420471 55.847947
Cu 52.020269 61.392230 53.947035
Cu 55.257018 61.568034 55.380945
Cu 50.277291 48.947309 50.681048
Cu 51.219697 48.439824 52.934591
Cu 53.152802 46.880387 53.170591
Cu 53.496405 49.100496 52.099154
Cu 55.430235 47.507157 52.333745
Cu 54.465677 48.619018 54.374737
Cu 56.389552 47.056191 54.604501
Cu 56.750514 49.277266 53.540751
Cu 57.713443 48.792593 55.811392
Cu 59.961765 49.473453 54.971305
Cu 47.397431 51.631154 52.476029
Cu 49.296398 50.027950 52.703589
Cu 49.650594 52.275310 51.634905
Cu 51.578536 50.694838 51.871718
Cu 50.612562 51.798065 53.904284
Cu 52.536772 50.207987 54.136733
Cu 52.891122 52.457371 53.072694
Cu 54.818301 50.861765 53.303618
Cu 53.856123 51.978236 55.338573
Cu 55.785537 50.384497 55.575963
Cu 56.131217 52.633382 54.508073
Cu 58.054764 51.046667 54.740716
Cu 57.098099 52.150385 56.777424
Cu 59.024526 50.556404 57.013254
Cu 59.373918 52.803531 55.942418
Cu 60.315480 52.332914 58.198807
Cu 47.716413 53.871718 51.401324
Cu 46.785987 54.982776 53.445061
Cu 48.686205 53.391010 53.675885
Cu 49.035902 55.644890 52.609118
Cu 50.960362 54.047960 52.838407
Cu 49.999010 55.161544 54.876745
Cu 51.929907 53.569125 55.106226
Cu 52.278603 55.815038 54.043463
Cu 54.204910 54.224210 54.275768
Cu 53.243608 55.335980 56.309372
Cu 55.169895 53.745146 56.541575
Cu 55.518698 55.991049 55.478842
Cu 57.449458 54.400460 55.713129
Cu 56.484540 55.513875 57.749874
Cu 58.408880 53.919170 57.983090
Cu 58.759226 56.173111 56.916631
Cu 60.693408 54.576703 57.150212
Cu 59.704052 55.684575 59.167826
Cu 48.069625 56.752927 54.647959
Cu 48.448055 58.974968 53.580231
Cu 50.355056 57.401754 53.810820
Cu 49.381335 58.517343 55.848234
Cu 51.311066 56.927030 56.079346
Cu 51.659307 59.171155 55.010785
Cu 53.591520 57.586656 55.247918
Cu 52.628427 58.690308 57.286535
Cu 54.559848 57.103526 57.518566
Cu 54.913416 59.347924 56.452382
Cu 56.831284 57.753583 56.679818
Cu 55.875105 58.870143 58.724976
Cu 57.797758 57.281444 58.957557
Cu 58.132529 59.501112 57.870488
Cu 50.712134 60.259707 57.038825
Cu 52.979586 60.941264 56.217791
Cu 53.948884 60.435530 58.472708
Cu 52.184144 47.960662 55.200215
Cu 53.162364 47.515813 57.451873
Cu 55.438929 48.137446 56.642114
Cu 48.336011 51.139185 54.735414
Cu 50.255207 49.544436 54.967766
Cu 49.299329 50.661193 56.998031
Cu 51.224170 49.070515 57.229919
Cu 51.576698 51.318954 56.168477
Cu 53.507743 49.737360 56.399832
Cu 52.547045 50.837341 58.433544
Cu 54.479779 49.247400 58.672171
Cu 54.824845 51.495444 57.607426
Cu 56.755262 49.897504 57.847368
Cu 55.792310 51.013948 59.874434
Cu 58.063998 51.667635 59.045005
Cu 47.405918 52.266855 56.756120
Cu 47.721334 54.508588 55.709591
Cu 49.658262 52.915231 55.934645
Cu 48.684867 54.029760 57.971947
Cu 50.613429 52.434606 58.199691
Cu 50.963044 54.683044 57.141095
Cu 52.893020 53.088440 57.376457
Cu 51.932152 54.208123 59.408112
Cu 53.866267 52.611316 59.640729
Cu 54.211181 54.859515 58.580067
Cu 56.134026 53.267051 58.803455
Cu 55.177826 54.382543 60.848420
Cu 57.089903 52.793005 61.046195
Cu 57.449319 55.037106 60.019127
Cu 49.027154 56.276225 56.914089
Cu 49.997282 55.796237 59.174456
Cu 50.345761 58.038294 58.113890
Cu 52.284209 56.444653 58.339060
Cu 51.333102 57.543796 60.351198
Cu 53.252887 55.973126 60.616765
Cu 53.600579 58.215089 59.555739
Cu 55.527238 56.629353 59.793645
Cu 50.281197 50.200252 59.245109
Cu 53.518217 50.376090 60.679145
Cu 49.669849 53.551577 60.214061
Cu 51.582755 51.954069 60.473258
Cu 52.906860 53.727436 61.648091
H 49.300331 47.709160 49.779986
H 48.706769 47.676910 49.517035
